

 <DUALSPHYSICS5> Copyright (c) 2025 by
 Dr Jose M. Dominguez Alonso, Prof. Alejandro Crespo,
 Dr Georgios Fourtakas, Prof. Benedict Rogers,
 Dr Renato Vacondio, Dr Corrado Altomare,
 Dr Angelo Tafuni, Dr Orlando Garcia Feal,
 Dr Ivan Martinez Estevez, Dr Joseph O'Connor,
 Dr Aaron English, Dr Francesco Ricci,
 Prof. Moncho Gomez Gesteira, Prof. Peter Stansby

 EPHYSLAB Environmental Physics Laboratory, Universidade de Vigo
 School of Mechanical, Aerospace and Civil Engineering, University of Manchester

 DualSPHysics is free software: you can redistribute it and/or
 modify it under the terms of the GNU Lesser General Public License
 as published by the Free Software Foundation, either version 2.1 of
 the License, or (at your option) any later version.

 DualSPHysics is distributed in the hope that it will be useful,
 but WITHOUT ANY WARRANTY; without even the implied warranty of
 MERCHANTABILITY or FITNESS FOR A PARTICULAR PURPOSE.  See the
 GNU Lesser General Public License for more details.

 You should have received a copy of the GNU Lesser General Public License
 along with DualSPHysics. If not, see <http://www.gnu.org/licenses/>.

 Free download source files and documentation from DualSPHysics website (http://dual.sphysics.org).
 Full list of developers and contributors is available at https://dual.sphysics.org/developers
 Properly cite the use of DualSPHysics (Dominguez et al., 2022) (https://dual.sphysics.org/references).


DualSPHysics5 v5.4.354 (20-03-2025)
====================================
[CUDA Capable device(s)]
  Detected 1 CUDA Capable device(s)
  CUDA Driver Version / Runtime Version: 12.4 / 12.3
 
Device 0: "NVIDIA H100 80GB HBM3"
  CUDA Capability Major....: 9.0
  Global memory............: 80995 MiB
  CUDA Cores...............: 16896 (132 Multiprocessors, 128 CUDA Cores/MP)
  GPU Max Clock rate.......: 1980 MHz (1.98 GHz)
  Memory Clock rate........: 2619 Mhz
  Memory Bus Width.........: 5120-bit
  L2 Cache Size............: 51200 KiB
  Constant memory..........: 64 KiB
  Shared memory per block..: 48 KiB
  Registers per block......: 65536
  Maximum threads per MP...: 2048
  Maximum threads per block: 1024
  Concurrent copy and kernel execution....: Yes with 3 copy engine(s)
  Run time limit on kernels...............: No
  Integrated GPU sharing Host Memory......: No
  Support host page-locked memory mapping.: Yes
  Device has ECC support..................: Enabled
  Device supports Unified Addressing (UVA): Yes
  Device PCI (Domain / Bus / location)....: 0 / 134 / 0
  Device supports P2P and RDMA............: Yes
  Device supports P2P from/to GPUs........: 
 
[GPU Hardware]
Device default: 0 "NVIDIA H100 80GB HBM3"
Compute capability: 9.0
Memory global: 80994 MiB
Memory shared: 49152 Bytes
 
[Initialising JSphGpuSingle  10-04-2025 21:20:56]
ProgramFile=".../DualSPHysics_v5.4/linux/DualSPHysics5.4_linux64"
Available features: Project Chrono coupling, MoorDynPlus coupling, Wave generation, FlexStruc, mDBC no-slip, GPU execution, OpenMP execution.
ExecutionDir=".../sph-benchmarks/damBreak3D/resoucres_dualsphysics"
XmlFile=".../resoucres_dualsphysics/damBreak3D_WCSPH-DBC_out/damBreak3D_WCSPH-DBC.xml"
OutputDir=".../damBreak3D/resoucres_dualsphysics/damBreak3D_WCSPH-DBC_out"
OutputDataDir=".../resoucres_dualsphysics/damBreak3D_WCSPH-DBC_out/data"
XML-App: GenCase v5.4.354 (20-03-2025)

*** WARNING: The XML option 'PartsOutMax' is deprecated. Use 'MinFluidStop' option.

**Basic case configuration is loaded
**Special case configuration is loaded
Loading initial state of particles...
Loaded particles: 1,086,474
MapRealPos(border)=(-0.0221,-0.0221,-0.0221)-(3.2471,1.0251,2.0261)
MapRealPos(final)=(-0.0221,-0.0221,-0.0221)-(3.2471,1.0251,3.0502)
**Initial state of particles is loaded
PosCellCode="13_10_9 (8192,1024,512)"
PosCellSize=0.044000  (1 x KernelSize)
**3D-Simulation parameters:
CaseName="damBreak3D_WCSPH-DBC"
RunName="damBreak3D_WCSPH-DBC"
SavePosDouble=False
SvExtraParts=""
SaveFtAce=False
SvTimers=True
Boundary="DBC"
StepAlgorithm="Verlet"
  VerletSteps=40
Kernel="Wendland"
  Wendland.awen=39235.54
  Wendland.bwenh=-4.053277e+08
Viscosity="Artificial"
  Visco=0.02
  ViscoBoundFactor=0
DensityDiffusion="Molteni and Colagrossi 2009"
  DensityDiffusionValue=0.1
Shifting="None"
RigidAlgorithm="None"
FloatingCount=0
CaseNp=1,086,474
CaseNbound=596,964
CaseNfixed=596,964
CaseNmoving=0
CaseNfloat=0
CaseNfluid=489,510
PeriodicActive="None"
Dp=0.011
KernelH=0.022000  (CoefficientH=1.1547; H/Dp=2)
KernelSize=0.044
CteB=295981.7
Gamma=7
RhopZero=1000
Cs0=45.51782102924084
CFLnumber=0.2
DtIni=0.0004833271756716521
DtMin=2.416635914368941e-05
DtAllParticles=False
MassFluid=0.001331
MassBound=0.001331
TimeMax=4
TimePart=4.1
Gravity=(0,0,-9.81)
RhopOut=True
RhopOutMin=700
RhopOutMax=1300
WrnPartsOut=True
MinFluidStop=0
NpfMinimum=0
CellMode="Full"
ScellDiv=1
MapCells=(75,24,70)  (126,000 cells)
CellDomFixed=False
DomCells=(75,24,70)  (126,000 cells)
DomCellCode="1+11_9_11"
 
BlockSize calculation mode: Fixed.
  BsForcesBound=128 (48 regs)
  BsForcesFluid=128 (56 regs)
 
**CellDiv: Requested gpu memory for 1,140,925 particles (over-allocation: 1.05X): 17.5 MiB (1 times).
**CellDiv: Requested GPU memory for 126,000 cells (over-allocation: 12.50X): 1.9 MiB (1 times).
 
RunMode="Pos-Cell - Single-GPU"
 
Particle summary:
  Fixed....: 596,964  id:(0-596963)   MKs:2 (10-11)
  Moving...: 0
  Floating.: 0
  Fluid....: 489,510  id:(596964-1086473)   MKs:1 (1)

Total particles: 1,086,474 (bound=596964 (fx=596964 mv=0 ft=0) fluid=489510)
Total MK blocks: 3 (bound=2 (fx=2 mv=0 ft=0) fluid=1)
 

Initial allocated memory in CPU: 97,840,260 (93.31 MiB)  (9 particle arrays)
Initial allocated memory in GPU: 163,810,728 (156.22 MiB)  (14 particle arrays)
Part_0000        1,086,474 (100.0%) particles successfully stored

[WARNINGS]
1. The XML option 'PartsOutMax' is deprecated. Use 'MinFluidStop' option.

[Initialising simulation (oskw6sqf)  10-04-2025 21:20:57]
PART   PartTime   TotalSteps   Steps    Particles    Cells        Time/Sec   Finish time        
=====  =========  ===========  =======  ===========  ===========  =========  ===================
**Updated allocated memory in CPU: 97,840,260 (93.31 MiB)  (9 particle arrays)
**Updated allocated memory in GPU: 176,849,952 (168.66 MiB)  (15 particle arrays)
  Progress 17.06% in 30.0s. Estimated finish time: 10-04-2025 21:23:52
  Progress 33.07% in 60.0s. Estimated finish time: 10-04-2025 21:23:58

[Simulation finished  10-04-2025 21:23:31]
Particles of simulation (initial): 1,086,474
DTs adjusted to DtMin............: 0
Excluded particles...............: 0
Total Runtime....................: 154.774185 sec.
Simulation Runtime...............: 154.194260 sec.
Runtime per physical second......: 38.547695 sec.
Steps per second.................: 331.238007
Steps of simulation..............: 51,075
PART files.......................: 1
Maximum number of particles......: 1,086,474
Maximum number of cells..........: 36,000
CPU Memory.......................: 97,840,260 (93.31 MiB)
GPU Memory.......................: 176,849,952 (168.66 MiB)
GPU Memory (for cells)...........: 2,016,040 (1.92 MiB)
 
[GPU Timers]
VA-Init..........................: 0.579924 sec.
NL-Limits........................: 1.245395 sec.
NL-PreSort.......................: 0.083413 sec.
NL-RadixSort.....................: 14.350561 sec.
NL-CellBegin.....................: 1.662502 sec.
NL-SortData......................: 4.110647 sec.
NL-OutCheck......................: 0 sec.
CF-PreForces.....................: 2.661262 sec.
CF-PreMDBC.......................: 0 sec.
CF-Forces........................: 127.980093 sec.
SU-Shifting......................: 0 sec.
SU-ComputeStep...................: 1.942683 sec.
SU-Floating......................: 0 sec.
SU-Motion........................: 0 sec.
SU-Periodic......................: 0 sec.
SU-ResizeNp......................: 0 sec.
SU-DownData......................: 0 sec.
SU-SavePart......................: 0 sec.
SU-Chrono........................: 0 sec.
SU-Moorings......................: 0 sec.
SU-InOut.........................: 0 sec.
SU-Gauges........................: 0 sec.
SU-FlexStruc.....................: 0 sec.
 
[Output files]
- CfgInit_Domain.vtk...: Saves the limits of the case and the simulation domain limits.
- CfgInit_MapCells.vtk.: Saves the cell division of the simulation domain.
- Run.csv..............: One line CSV file with execution parameters and other simulation data.
- Run.out..............: Log file of the simulation.
- RunPARTs.csv.........: Saves extra information of simulated PARTs.
- data/PartInfo.ibi4...: Binary file with execution information for each instant (input for PartInfo program).
- data/PartOut_???.obi4: Binary file with particles excluded during simulation (input for PartVtkOut program).
- data/Part_????.bi4...: Binary file with particle data in different instants.
- data/Part_Head.ibi4..: Binary file with basic information of simulation data.
 
[WARNINGS]
1. The XML option 'PartsOutMax' is deprecated. Use 'MinFluidStop' option.
 
[References]
- Official solver reference DualSPHysics v5.0: J.M. Dominguez, G. Fourtakas,
    C. Altomare, R.B. Canelas, A. Tafuni, O. Garcia-Feal, I. Martinez-Estevez,
    A. Mokos, R. Vacondio, A.J.C. Crespo, B.D. Rogers, P.K. Stansby, M. Gomez-Gesteira.
    2022. DualSPHysics: from fluid dynamics to multiphysics problems.
    Computational Particle Mechanics, 9:867-895. doi: https://doi.org/10.1007/s40571-021-00404-2

- Optimised CPU multi-core and GPU implementation (Dominguez et al., 2013  https://doi.org/10.1016/j.cpc.2012.10.015)
- Dynamic boundary conditions (Crespo et al., 2007  https://doi.org/10.3970/cmc.2007.005.173)
- Density diffusion Term: Molteni (Molteni and Colagrossi, 2009  https://doi.org/10.1016/j.cpc.2008.12.004)
- Viscosity: Artificial (Monaghan, 1992  https://doi.org/10.1146/annurev.aa.30.090192.002551)
- Viscosity: ViscoBoundFactor coefficient (Barreiro et al., 2014  https://doi.org/10.1371/journal.pone.0111031)
- Kernel: Quintic Wendland (Wendland, 1995  https://doi.org/10.1007/BF02123482)
- Time integration scheme: Verlet (Verlet, 1967  https://doi.org/10.1103/PhysRev.159.98)

Finished execution (code=0).

