

 <DUALSPHYSICS5> Copyright (c) 2023 by
 Dr Jose M. Dominguez Alonso, Dr Alejandro Crespo,
 Prof. Moncho Gomez Gesteira, Prof. Benedict Rogers,
 Dr Georgios Fourtakas, Prof. Peter Stansby,
 Dr Renato Vacondio, Dr Corrado Altomare, Dr Angelo Tafuni,
 Dr Orlando Garcia Feal, Ivan Martinez Estevez,
 Dr Joseph O'Connor, Dr Aaron English

 EPHYSLAB Environmental Physics Laboratory, Universidade de Vigo
 School of Mechanical, Aerospace and Civil Engineering, University of Manchester

 DualSPHysics is free software: you can redistribute it and/or
 modify it under the terms of the GNU Lesser General Public License
 as published by the Free Software Foundation, either version 2.1 of
 the License, or (at your option) any later version.

 DualSPHysics is distributed in the hope that it will be useful,
 but WITHOUT ANY WARRANTY; without even the implied warranty of
 MERCHANTABILITY or FITNESS FOR A PARTICULAR PURPOSE.  See the
 GNU Lesser General Public License for more details.

 You should have received a copy of the GNU Lesser General Public License
 along with DualSPHysics. If not, see <http://www.gnu.org/licenses/>.

 Free download source files and documentation from DualSPHysics website (http://dual.sphysics.org).
 Full list of developers and contributors is available at https://dual.sphysics.org/developers
 Properly cite the use of DualSPHysics (Dominguez et al., 2022) (https://dual.sphysics.org/references).


DualSPHysics5 v5.2.269 (03-04-2023)
====================================
[CUDA Capable device(s)]
  Detected 1 CUDA Capable device(s)
  CUDA Driver Version / Runtime Version: 13.0 / 11.7
 
Device 0: "NVIDIA H100 NVL"
  CUDA Capability Major....: 9.0
  Global memory............: 95320 MBytes
  CUDA Cores...............: 0 (132 Multiprocessors,   0 CUDA Cores/MP)
  GPU Max Clock rate.......: 1785 MHz (1.78 GHz)
  Memory Clock rate........: 2619 Mhz
  Memory Bus Width.........: 6016-bit
  L2 Cache Size............: 61440 KBytes
  Constant memory..........: 64 KBytes
  Shared memory per block..: 48 KBytes
  Registers per block......: 65536
  Maximum threads per MP...: 2048
  Maximum threads per block: 1024
  Concurrent copy and kernel execution....: Yes with 3 copy engine(s)
  Run time limit on kernels...............: No
  Integrated GPU sharing Host Memory......: No
  Support host page-locked memory mapping.: Yes
  Device has ECC support..................: Enabled
  Device supports Unified Addressing (UVA): Yes
  Device PCI (Domain / Bus / location)....: 0 / 7 / 0
  Device supports P2P and RDMA............: Yes
  Device supports P2P from/to GPUs........: 
 
[GPU Hardware]
Device default: 0 "NVIDIA H100 NVL"
Compute capability: 9.0
Memory global: 95319 MB
Memory shared: 49152 Bytes
 
[Initialising JSphGpuSingle  25-01-2026 01:50:27]
ProgramFile=".../bin/linux/DualSPHysics5.2_linux64"
ExecutionDir=".../sph-benchmarks5/damBreak3D/resoucres_dualsphysics"
XmlFile=".../resoucres_dualsphysics/damBreak3D_WCSPH-DBC_out/damBreak3D_WCSPH-DBC.xml"
OutputDir=".../damBreak3D/resoucres_dualsphysics/damBreak3D_WCSPH-DBC_out"
OutputDataDir=".../resoucres_dualsphysics/damBreak3D_WCSPH-DBC_out/data"
XML-App: GenCase v5.0.278 (24-04-2023)
XML-Vars (uservars + ctes): Boxpx1=[0.6575]  Boxpx2=[0.82]  Boxpy1=[0.3]  Boxpy2=[0.703]  Boxpz2=[0.157]  DefBoxpx=[0.66]  DefBoxpy=[0.3]  DefBoxsx=[0.16]  DefBoxsy=[0.4]  DefBoxsz=[0.16]  DefTankpx=[0]  DefTankpy=[0]  DefTankpz=[0]  DefTanksx=[3.22]  DefTanksy=[1]  DefTanksz=[2]  Dpm=[0.00325]  MResId=[0]  Tankpx1=[0.001]  Tankpx2=[3.2185]  Tankpy1=[0.001]  Tankpy2=[1.002]  Tankpz1=[0.001]  Tankpz2=[2.003]  CaseName=["damBreak3D_WCSPH-DBC"]  Data2D=[0]  Data2DPosy=[0]  H=[0.013]  KernelSize=[0.026]  B=[298785]  Gamma=[7]  Rhop0=[1000]  Dp=[0.0065]  Gravity_x=[0]  Gravity_y=[0]  Gravity_z=[-9.81]  MassFluid=[0.000274625]  MassBound=[0.000274625]
XML-Vars (parameters): TimeMax=[4]  TimeOut=[4.1]
**Basic case configuration is loaded
**Special case configuration is loaded
Loading initial state of particles...
Loaded particles: 4079190
MapRealPos(border)=(-0.01265,-0.01265,-0.01265)-(3.23215,1.01565,2.01665)
MapRealPos(final)=(-0.01265,-0.01265,-0.01265)-(3.23215,1.01565,3.0313)
**Initial state of particles is loaded
PosCellCode="13_10_9 (8192,1024,512)"
PosCellSize=0.026000  (1 x KernelSize)
**3D-Simulation parameters:
CaseName="damBreak3D_WCSPH-DBC"
RunName="damBreak3D_WCSPH-DBC"
Symmetry=False
SavePosDouble=False
SvExtraParts=""
SaveFtAce=False
SvTimers=True
Boundary="DBC"
StepAlgorithm="Verlet"
  VerletSteps=40
Kernel="Wendland"
  Wendland.awen=190159.3
  Wendland.bwen=-7.313854e+07
Viscosity="Artificial"
  Visco=0.02
  ViscoBoundFactor=0
DensityDiffusion="Molteni and Colagrossi 2009"
  DensityDiffusionValue=0.1
Shifting="None"
RigidAlgorithm="None"
FloatingCount=0
CaseNp=4079190
CaseNbound=1691778
CaseNfixed=1691778
CaseNmoving=0
CaseNfloat=0
CaseNfluid=2387412
PeriodicActive="None"
Dp=0.0065
KernelH=0.013000  (CoefficientH=1.1547; H/Dp=2)
KernelSize=0.026
CteB=298784.6
Gamma=7
RhopZero=1000
Cs0=45.73283216136958
CFLnumber=0.2
DtIni=0.0002842596807114424
DtMin=1.421298424736209e-05
DtAllParticles=False
MassFluid=0.000274625
MassBound=0.000274625
TimeMax=4
TimePart=4.1
Gravity=(0,0,-9.81)
NpMinimum=1691778
RhopOut=True
RhopOutMin=700
RhopOutMax=1300
WrnPartsOut=True
CellMode="Full"
ScellDiv=1
MapCells=(125,40,118)
CellDomFixed=False
**Requested GPU memory for 4079318 particles: 560.2 MB (0 times).
DomCells=(125,40,118)
DomCellCode="1+11_10_10"
 
BlockSize calculation mode: Fixed.
  BsForcesBound=128 (48 regs)
  BsForcesFluid=128 (60 regs)
 
**CellDiv: Requested gpu memory for 4283277 particles: 33.1 MB.
**CellDiv: Requested gpu memory for 49200 cells (CellMode=Full): 0.8 MB.
 
RunMode="Pos-Cell - Single-GPU"
 
Particle summary:
  Fixed....: 1691778  id:(0-1691777)   MKs:2 (10-11)
  Moving...: 0
  Floating.: 0
  Fluid....: 2387412  id:(1691778-4079189)   MKs:1 (1)

Total particles: 4079190 (bound=1691778 (fx=1691778 mv=0 ft=0) fluid=2387412)
Total MK blocks: 3 (bound=2 (fx=2 mv=0 ft=0) fluid=1)
 
Allocated memory in CPU: 367184700 (350.17 MB)
Allocated memory in GPU: 622879424 (594.02 MB)
Part_0000        4079190 particles successfully stored

[Initialising simulation (wc48ofoi)  25-01-2026 01:50:28]
PART       PartTime      TotalSteps    Steps    Time/Sec   Finish time        
=========  ============  ============  =======  =========  ===================
**CellDiv: Requested gpu memory for 54120 cells (CellMode=Full): 0.8 MB.
  Progress 2.97% in 30.0s. Estimated finish time: 25-01-2026 02:07:16
**CellDiv: Requested gpu memory for 59040 cells (CellMode=Full): 0.9 MB.
  Progress 5.63% in 60.0s. Estimated finish time: 25-01-2026 02:08:14
**CellDiv: Requested gpu memory for 65067 cells (CellMode=Full): 1.0 MB.
**CellDiv: Requested gpu memory for 70725 cells (CellMode=Full): 1.1 MB.
**CellDiv: Requested gpu memory for 77326 cells (CellMode=Full): 1.2 MB.
**CellDiv: Requested gpu memory for 84788 cells (CellMode=Full): 1.3 MB.
**CellDiv: Requested gpu memory for 92004 cells (CellMode=Full): 1.4 MB.
**CellDiv: Requested gpu memory for 100122 cells (CellMode=Full): 1.5 MB.
**CellDiv: Requested gpu memory for 111192 cells (CellMode=Full): 1.7 MB.
**CellDiv: Requested gpu memory for 122590 cells (CellMode=Full): 1.9 MB.
**CellDiv: Requested gpu memory for 134316 cells (CellMode=Full): 2.0 MB.
**CellDiv: Requested gpu memory for 146370 cells (CellMode=Full): 2.2 MB.
**CellDiv: Requested gpu memory for 160064 cells (CellMode=Full): 2.4 MB.
**CellDiv: Requested gpu memory for 172856 cells (CellMode=Full): 2.6 MB.
**CellDiv: Requested gpu memory for 185976 cells (CellMode=Full): 2.8 MB.

*** WARNING: 1 DTs adjusted to DtMin (t:0.624642, nstep:15614)


*** WARNING: 10 DTs adjusted to DtMin (t:0.624827, nstep:15627)

**CellDiv: Requested gpu memory for 201474 cells (CellMode=Full): 3.1 MB.
**CellDiv: Requested gpu memory for 216972 cells (CellMode=Full): 3.3 MB.
**CellDiv: Requested gpu memory for 232470 cells (CellMode=Full): 3.5 MB.
**CellDiv: Requested gpu memory for 247968 cells (CellMode=Full): 3.8 MB.
**CellDiv: Requested gpu memory for 263466 cells (CellMode=Full): 4.0 MB.
**CellDiv: Requested gpu memory for 278964 cells (CellMode=Full): 4.3 MB.
  Progress 21.13% in 300.0s. Estimated finish time: 25-01-2026 02:14:07
  Progress 42.39% in 600.0s. Estimated finish time: 25-01-2026 02:14:03

[Simulation finished  25-01-2026 02:10:39]
Particles of simulation (initial): 4079190
DTs adjusted to DtMin............: 17
Excluded particles...............: 0
Total Runtime....................: 1211.909058 sec.
Simulation Runtime...............: 1211.046509 sec.
Runtime per physical second......: 302.760101 sec.
Steps per second.................: 74.889778
Steps of simulation..............: 90695
PART files.......................: 1
Maximum number of particles......: 4079190
Maximum number of cells..........: 275000
CPU Memory.......................: 367184700 (350.17 MB)
GPU Memory.......................: 626555648 (597.53 MB)
 
[GPU Timers]
VA-Init..........................: 0.862510 sec.
NL-Limits........................: 15.886823 sec.
NL-PreSort.......................: 0.339848 sec.
NL-RadixSort.....................: 62.807686 sec.
NL-CellBegin.....................: 3.766613 sec.
NL-SortData......................: 0.892436 sec.
NL-OutCheck......................: 19.540495 sec.
CF-PreForces.....................: 7.933617 sec.
CF-Forces........................: 1098.663613 sec.
SU-Shifting......................: 0 sec.
SU-ComputeStep...................: 0.737743 sec.
SU-Floating......................: 0 sec.
SU-Motion........................: 0 sec.
SU-Periodic......................: 0 sec.
SU-ResizeNp......................: 0 sec.
SU-DownData......................: 0 sec.
SU-SavePart......................: 0 sec.
SU-Chrono........................: 0 sec.
SU-Moorings......................: 0 sec.
SU-InOut.........................: 0 sec.
SU-Gauges........................: 0 sec.
 
[Output files]
- CfgInit_Domain.vtk...: Saves the limits of the case and the simulation domain limits.
- CfgInit_MapCells.vtk.: Saves the cell division of the simulation domain.
- Run.csv..............: One line CSV file with execution parameters and other simulation data.
- Run.out..............: Log file of the simulation.
- data/PartInfo.ibi4...: Binary file with execution information for each instant (input for PartInfo program).
- data/PartOut_???.obi4: Binary file with particles excluded during simulation (input for PartVtkOut program).
- data/Part_????.bi4...: Binary file with particle data in different instants.
- data/Part_Head.ibi4..: Binary file with basic information of simulation data.
 
[WARNINGS]
1. 1 DTs adjusted to DtMin (t:0.624642, nstep:15614)
2. 10 DTs adjusted to DtMin (t:0.624827, nstep:15627)
 
[References]
- Official solver reference DualSPHysics v5.0: J.M. Dominguez, G. Fourtakas,
    C. Altomare, R.B. Canelas, A. Tafuni, O. Garcia-Feal, I. Martinez-Estevez,
    A. Mokos, R. Vacondio, A.J.C. Crespo, B.D. Rogers, P.K. Stansby, M. Gomez-Gesteira.
    2022. DualSPHysics: from fluid dynamics to multiphysics problems.
    Computational Particle Mechanics, 9:867-895. doi: https://doi.org/10.1007/s40571-021-00404-2

- Optimised CPU multi-core and GPU implementation (Dominguez et al., 2013  https://doi.org/10.1016/j.cpc.2012.10.015)
- Dynamic boundary conditions (Crespo et al., 2007  https://doi.org/10.3970/cmc.2007.005.173)
- Density diffusion Term: Molteni (Molteni and Colagrossi, 2009  https://doi.org/10.1016/j.cpc.2008.12.004)
- Viscosity: Artificial (Monaghan, 1992  https://doi.org/10.1146/annurev.aa.30.090192.002551)
- Viscosity: ViscoBoundFactor coefficient (Barreiro et al., 2014  https://doi.org/10.1371/journal.pone.0111031)
- Kernel: Quintic Wendland (Wendland, 1995  https://doi.org/10.1007/BF02123482)
- Time integration scheme: Verlet (Verlet, 1967  https://doi.org/10.1103/PhysRev.159.98)

Finished execution (code=0).

