

 <DUALSPHYSICS5> Copyright (c) 2023 by
 Dr Jose M. Dominguez Alonso, Dr Alejandro Crespo,
 Prof. Moncho Gomez Gesteira, Prof. Benedict Rogers,
 Dr Georgios Fourtakas, Prof. Peter Stansby,
 Dr Renato Vacondio, Dr Corrado Altomare, Dr Angelo Tafuni,
 Dr Orlando Garcia Feal, Ivan Martinez Estevez,
 Dr Joseph O'Connor, Dr Aaron English

 EPHYSLAB Environmental Physics Laboratory, Universidade de Vigo
 School of Mechanical, Aerospace and Civil Engineering, University of Manchester

 DualSPHysics is free software: you can redistribute it and/or
 modify it under the terms of the GNU Lesser General Public License
 as published by the Free Software Foundation, either version 2.1 of
 the License, or (at your option) any later version.

 DualSPHysics is distributed in the hope that it will be useful,
 but WITHOUT ANY WARRANTY; without even the implied warranty of
 MERCHANTABILITY or FITNESS FOR A PARTICULAR PURPOSE.  See the
 GNU Lesser General Public License for more details.

 You should have received a copy of the GNU Lesser General Public License
 along with DualSPHysics. If not, see <http://www.gnu.org/licenses/>.

 Free download source files and documentation from DualSPHysics website (http://dual.sphysics.org).
 Full list of developers and contributors is available at https://dual.sphysics.org/developers
 Properly cite the use of DualSPHysics (Dominguez et al., 2022) (https://dual.sphysics.org/references).


DualSPHysics5 v5.2.269 (03-04-2023)
====================================
[CUDA Capable device(s)]
  Detected 1 CUDA Capable device(s)
  CUDA Driver Version / Runtime Version: 13.0 / 11.7
 
Device 0: "NVIDIA H100 NVL"
  CUDA Capability Major....: 9.0
  Global memory............: 95320 MBytes
  CUDA Cores...............: 0 (132 Multiprocessors,   0 CUDA Cores/MP)
  GPU Max Clock rate.......: 1785 MHz (1.78 GHz)
  Memory Clock rate........: 2619 Mhz
  Memory Bus Width.........: 6016-bit
  L2 Cache Size............: 61440 KBytes
  Constant memory..........: 64 KBytes
  Shared memory per block..: 48 KBytes
  Registers per block......: 65536
  Maximum threads per MP...: 2048
  Maximum threads per block: 1024
  Concurrent copy and kernel execution....: Yes with 3 copy engine(s)
  Run time limit on kernels...............: No
  Integrated GPU sharing Host Memory......: No
  Support host page-locked memory mapping.: Yes
  Device has ECC support..................: Enabled
  Device supports Unified Addressing (UVA): Yes
  Device PCI (Domain / Bus / location)....: 0 / 7 / 0
  Device supports P2P and RDMA............: Yes
  Device supports P2P from/to GPUs........: 
 
[GPU Hardware]
Device default: 0 "NVIDIA H100 NVL"
Compute capability: 9.0
Memory global: 95319 MB
Memory shared: 49152 Bytes
 
[Initialising JSphGpuSingle  24-01-2026 23:03:42]
ProgramFile=".../bin/linux/DualSPHysics5.2_linux64"
ExecutionDir=".../sph-benchmarks5/damBreak3D/resoucres_dualsphysics"
XmlFile=".../resoucres_dualsphysics/damBreak3D_WCSPH-DBC_out/damBreak3D_WCSPH-DBC.xml"
OutputDir=".../damBreak3D/resoucres_dualsphysics/damBreak3D_WCSPH-DBC_out"
OutputDataDir=".../resoucres_dualsphysics/damBreak3D_WCSPH-DBC_out/data"
XML-App: GenCase v5.0.278 (24-04-2023)
XML-Vars (uservars + ctes): Boxpx1=[0.656]  Boxpx2=[0.818]  Boxpy1=[0.296]  Boxpy2=[0.701]  Boxpz2=[0.161]  DefBoxpx=[0.66]  DefBoxpy=[0.3]  DefBoxsx=[0.16]  DefBoxsy=[0.4]  DefBoxsz=[0.16]  DefTankpx=[0]  DefTankpy=[0]  DefTankpz=[0]  DefTanksx=[3.22]  DefTanksy=[1]  DefTanksz=[2]  Dpm=[0.0045]  MResId=[0]  Tankpx1=[-0.001]  Tankpx2=[3.221]  Tankpy1=[-0.001]  Tankpy2=[0.998]  Tankpz1=[-0.001]  Tankpz2=[1.997]  CaseName=["damBreak3D_WCSPH-DBC"]  Data2D=[0]  Data2DPosy=[0]  H=[0.018]  KernelSize=[0.036]  B=[297663]  Gamma=[7]  Rhop0=[1000]  Dp=[0.009]  Gravity_x=[0]  Gravity_y=[0]  Gravity_z=[-9.81]  MassFluid=[0.000729]  MassBound=[0.000729]
XML-Vars (parameters): TimeMax=[4]  TimeOut=[4.1]
**Basic case configuration is loaded
**Special case configuration is loaded
Loading initial state of particles...
Loaded particles: 1783818
MapRealPos(border)=(-0.0199,-0.0199,-0.0199)-(3.2399,1.0169,2.0159)
MapRealPos(final)=(-0.0199,-0.0199,-0.0199)-(3.2399,1.0169,3.0338)
**Initial state of particles is loaded
PosCellCode="13_10_9 (8192,1024,512)"
PosCellSize=0.036000  (1 x KernelSize)
**3D-Simulation parameters:
CaseName="damBreak3D_WCSPH-DBC"
RunName="damBreak3D_WCSPH-DBC"
Symmetry=False
SavePosDouble=False
SvExtraParts=""
SaveFtAce=False
SvTimers=True
Boundary="DBC"
StepAlgorithm="Verlet"
  VerletSteps=40
Kernel="Wendland"
  Wendland.awen=71635.81
  Wendland.bwen=-1.989893e+07
Viscosity="Artificial"
  Visco=0.02
  ViscoBoundFactor=0
DensityDiffusion="Molteni and Colagrossi 2009"
  DensityDiffusionValue=0.1
Shifting="None"
RigidAlgorithm="None"
FloatingCount=0
CaseNp=1783818
CaseNbound=886218
CaseNfixed=886218
CaseNmoving=0
CaseNfloat=0
CaseNfluid=897600
PeriodicActive="None"
Dp=0.008999999999999999
KernelH=0.018000  (CoefficientH=1.1547; H/Dp=2)
KernelSize=0.036
CteB=297663.4
Gamma=7
RhopZero=1000
Cs0=45.64695019932876
CFLnumber=0.2
DtIni=0.0003943308183030442
DtMin=1.971654120895156e-05
DtAllParticles=False
MassFluid=0.000729
MassBound=0.000729
TimeMax=4
TimePart=4.1
Gravity=(0,0,-9.81)
NpMinimum=886218
RhopOut=True
RhopOutMin=700
RhopOutMax=1300
WrnPartsOut=True
CellMode="Full"
ScellDiv=1
MapCells=(91,29,85)
CellDomFixed=False
**Requested GPU memory for 1783946 particles: 245.0 MB (0 times).
DomCells=(91,29,85)
DomCellCode="1+11_9_11"
 
BlockSize calculation mode: Fixed.
  BsForcesBound=128 (48 regs)
  BsForcesFluid=128 (60 regs)
 
**CellDiv: Requested gpu memory for 1873136 particles: 14.5 MB.
**CellDiv: Requested gpu memory for 19980 cells (CellMode=Full): 0.3 MB.
 
RunMode="Pos-Cell - Single-GPU"
 
Particle summary:
  Fixed....: 886218  id:(0-886217)   MKs:2 (10-11)
  Moving...: 0
  Floating.: 0
  Fluid....: 897600  id:(886218-1783817)   MKs:1 (1)

Total particles: 1783818 (bound=886218 (fx=886218 mv=0 ft=0) fluid=897600)
Total MK blocks: 3 (bound=2 (fx=2 mv=0 ft=0) fluid=1)
 
Allocated memory in CPU: 160601220 (153.16 MB)
Allocated memory in GPU: 272370360 (259.75 MB)
Part_0000        1783818 particles successfully stored

[Initialising simulation (tjmjq3ns)  24-01-2026 23:03:42]
PART       PartTime      TotalSteps    Steps    Time/Sec   Finish time        
=========  ============  ============  =======  =========  ===================
**CellDiv: Requested gpu memory for 22680 cells (CellMode=Full): 0.3 MB.
**CellDiv: Requested gpu memory for 25920 cells (CellMode=Full): 0.4 MB.
**CellDiv: Requested gpu memory for 29160 cells (CellMode=Full): 0.4 MB.
**CellDiv: Requested gpu memory for 32640 cells (CellMode=Full): 0.5 MB.
  Progress 9.29% in 30.0s. Estimated finish time: 24-01-2026 23:09:04
**CellDiv: Requested gpu memory for 36720 cells (CellMode=Full): 0.6 MB.
**CellDiv: Requested gpu memory for 41820 cells (CellMode=Full): 0.6 MB.
**CellDiv: Requested gpu memory for 47880 cells (CellMode=Full): 0.7 MB.
**CellDiv: Requested gpu memory for 54810 cells (CellMode=Full): 0.8 MB.
**CellDiv: Requested gpu memory for 62100 cells (CellMode=Full): 0.9 MB.
  Progress 15.64% in 60.0s. Estimated finish time: 24-01-2026 23:10:05
**CellDiv: Requested gpu memory for 69000 cells (CellMode=Full): 1.1 MB.
**CellDiv: Requested gpu memory for 77280 cells (CellMode=Full): 1.2 MB.
**CellDiv: Requested gpu memory for 85560 cells (CellMode=Full): 1.3 MB.
  Progress 82.55% in 300.0s. Estimated finish time: 24-01-2026 23:09:45

[Simulation finished  24-01-2026 23:09:36]
Particles of simulation (initial): 1783818
DTs adjusted to DtMin............: 0
Excluded particles...............: 0
Total Runtime....................: 354.425568 sec.
Simulation Runtime...............: 354.061249 sec.
Runtime per physical second......: 88.513847 sec.
Steps per second.................: 178.785446
Steps of simulation..............: 63301
PART files.......................: 1
Maximum number of particles......: 1783818
Maximum number of cells..........: 84448
CPU Memory.......................: 160601220 (153.16 MB)
GPU Memory.......................: 273419640 (260.75 MB)
 
[GPU Timers]
VA-Init..........................: 0.364335 sec.
NL-Limits........................: 5.079920 sec.
NL-PreSort.......................: 0.206499 sec.
NL-RadixSort.....................: 27.541846 sec.
NL-CellBegin.....................: 2.020325 sec.
NL-SortData......................: 0.529515 sec.
NL-OutCheck......................: 6.259718 sec.
CF-PreForces.....................: 3.849044 sec.
CF-Forces........................: 307.909006 sec.
SU-Shifting......................: 0 sec.
SU-ComputeStep...................: 0.423289 sec.
SU-Floating......................: 0 sec.
SU-Motion........................: 0 sec.
SU-Periodic......................: 0 sec.
SU-ResizeNp......................: 0 sec.
SU-DownData......................: 0 sec.
SU-SavePart......................: 0 sec.
SU-Chrono........................: 0 sec.
SU-Moorings......................: 0 sec.
SU-InOut.........................: 0 sec.
SU-Gauges........................: 0 sec.
 
[Output files]
- CfgInit_Domain.vtk...: Saves the limits of the case and the simulation domain limits.
- CfgInit_MapCells.vtk.: Saves the cell division of the simulation domain.
- Run.csv..............: One line CSV file with execution parameters and other simulation data.
- Run.out..............: Log file of the simulation.
- data/PartInfo.ibi4...: Binary file with execution information for each instant (input for PartInfo program).
- data/PartOut_???.obi4: Binary file with particles excluded during simulation (input for PartVtkOut program).
- data/Part_????.bi4...: Binary file with particle data in different instants.
- data/Part_Head.ibi4..: Binary file with basic information of simulation data.
 
[References]
- Official solver reference DualSPHysics v5.0: J.M. Dominguez, G. Fourtakas,
    C. Altomare, R.B. Canelas, A. Tafuni, O. Garcia-Feal, I. Martinez-Estevez,
    A. Mokos, R. Vacondio, A.J.C. Crespo, B.D. Rogers, P.K. Stansby, M. Gomez-Gesteira.
    2022. DualSPHysics: from fluid dynamics to multiphysics problems.
    Computational Particle Mechanics, 9:867-895. doi: https://doi.org/10.1007/s40571-021-00404-2

- Optimised CPU multi-core and GPU implementation (Dominguez et al., 2013  https://doi.org/10.1016/j.cpc.2012.10.015)
- Dynamic boundary conditions (Crespo et al., 2007  https://doi.org/10.3970/cmc.2007.005.173)
- Density diffusion Term: Molteni (Molteni and Colagrossi, 2009  https://doi.org/10.1016/j.cpc.2008.12.004)
- Viscosity: Artificial (Monaghan, 1992  https://doi.org/10.1146/annurev.aa.30.090192.002551)
- Viscosity: ViscoBoundFactor coefficient (Barreiro et al., 2014  https://doi.org/10.1371/journal.pone.0111031)
- Kernel: Quintic Wendland (Wendland, 1995  https://doi.org/10.1007/BF02123482)
- Time integration scheme: Verlet (Verlet, 1967  https://doi.org/10.1103/PhysRev.159.98)

Finished execution (code=0).

