

 <DUALSPHYSICS5> Copyright (c) 2023 by
 Dr Jose M. Dominguez Alonso, Dr Alejandro Crespo,
 Prof. Moncho Gomez Gesteira, Prof. Benedict Rogers,
 Dr Georgios Fourtakas, Prof. Peter Stansby,
 Dr Renato Vacondio, Dr Corrado Altomare, Dr Angelo Tafuni,
 Dr Orlando Garcia Feal, Ivan Martinez Estevez,
 Dr Joseph O'Connor, Dr Aaron English

 EPHYSLAB Environmental Physics Laboratory, Universidade de Vigo
 School of Mechanical, Aerospace and Civil Engineering, University of Manchester

 DualSPHysics is free software: you can redistribute it and/or
 modify it under the terms of the GNU Lesser General Public License
 as published by the Free Software Foundation, either version 2.1 of
 the License, or (at your option) any later version.

 DualSPHysics is distributed in the hope that it will be useful,
 but WITHOUT ANY WARRANTY; without even the implied warranty of
 MERCHANTABILITY or FITNESS FOR A PARTICULAR PURPOSE.  See the
 GNU Lesser General Public License for more details.

 You should have received a copy of the GNU Lesser General Public License
 along with DualSPHysics. If not, see <http://www.gnu.org/licenses/>.

 Free download source files and documentation from DualSPHysics website (http://dual.sphysics.org).
 Full list of developers and contributors is available at https://dual.sphysics.org/developers
 Properly cite the use of DualSPHysics (Dominguez et al., 2022) (https://dual.sphysics.org/references).


DualSPHysics5 v5.2.269 (03-04-2023)
====================================
[CUDA Capable device(s)]
  Detected 1 CUDA Capable device(s)
  CUDA Driver Version / Runtime Version: 13.0 / 11.7
 
Device 0: "NVIDIA H100 NVL"
  CUDA Capability Major....: 9.0
  Global memory............: 95320 MBytes
  CUDA Cores...............: 0 (132 Multiprocessors,   0 CUDA Cores/MP)
  GPU Max Clock rate.......: 1785 MHz (1.78 GHz)
  Memory Clock rate........: 2619 Mhz
  Memory Bus Width.........: 6016-bit
  L2 Cache Size............: 61440 KBytes
  Constant memory..........: 64 KBytes
  Shared memory per block..: 48 KBytes
  Registers per block......: 65536
  Maximum threads per MP...: 2048
  Maximum threads per block: 1024
  Concurrent copy and kernel execution....: Yes with 3 copy engine(s)
  Run time limit on kernels...............: No
  Integrated GPU sharing Host Memory......: No
  Support host page-locked memory mapping.: Yes
  Device has ECC support..................: Enabled
  Device supports Unified Addressing (UVA): Yes
  Device PCI (Domain / Bus / location)....: 0 / 7 / 0
  Device supports P2P and RDMA............: Yes
  Device supports P2P from/to GPUs........: 
 
[GPU Hardware]
Device default: 0 "NVIDIA H100 NVL"
Compute capability: 9.0
Memory global: 95319 MB
Memory shared: 49152 Bytes
 
[Initialising JSphGpuSingle  24-01-2026 23:21:26]
ProgramFile=".../bin/linux/DualSPHysics5.2_linux64"
ExecutionDir=".../sph-benchmarks5/damBreak3D/resoucres_dualsphysics"
XmlFile=".../resoucres_dualsphysics/damBreak3D_WCSPH-DBC_out/damBreak3D_WCSPH-DBC.xml"
OutputDir=".../damBreak3D/resoucres_dualsphysics/damBreak3D_WCSPH-DBC_out"
OutputDataDir=".../resoucres_dualsphysics/damBreak3D_WCSPH-DBC_out/data"
XML-App: GenCase v5.0.278 (24-04-2023)
XML-Vars (uservars + ctes): Boxpx1=[0.6625]  Boxpx2=[0.824]  Boxpy1=[0.3015]  Boxpy2=[0.7005]  Boxpz2=[0.159]  DefBoxpx=[0.66]  DefBoxpy=[0.3]  DefBoxsx=[0.16]  DefBoxsy=[0.4]  DefBoxsz=[0.16]  DefTankpx=[0]  DefTankpy=[0]  DefTankpz=[0]  DefTanksx=[3.22]  DefTanksy=[1]  DefTanksz=[2]  Dpm=[0.00475]  MResId=[0]  Tankpx1=[-0.0025]  Tankpx2=[3.218]  Tankpy1=[-0.0025]  Tankpy2=[1.0045]  Tankpz1=[-0.0025]  Tankpz2=[2.002]  CaseName=["damBreak3D_WCSPH-DBC"]  Data2D=[0]  Data2DPosy=[0]  H=[0.019]  KernelSize=[0.038]  B=[298224]  Gamma=[7]  Rhop0=[1000]  Dp=[0.0095]  Gravity_x=[0]  Gravity_y=[0]  Gravity_z=[-9.81]  MassFluid=[0.000857375]  MassBound=[0.000857375]
XML-Vars (parameters): TimeMax=[4]  TimeOut=[4.1]
**Basic case configuration is loaded
**Special case configuration is loaded
Loading initial state of particles...
Loaded particles: 1566534
MapRealPos(border)=(-0.02245,-0.02245,-0.02245)-(3.23795,1.02445,2.02195)
MapRealPos(final)=(-0.02245,-0.02245,-0.02245)-(3.23795,1.02445,3.04415)
**Initial state of particles is loaded
PosCellCode="13_10_9 (8192,1024,512)"
PosCellSize=0.038000  (1 x KernelSize)
**3D-Simulation parameters:
CaseName="damBreak3D_WCSPH-DBC"
RunName="damBreak3D_WCSPH-DBC"
Symmetry=False
SavePosDouble=False
SvExtraParts=""
SaveFtAce=False
SvTimers=True
Boundary="DBC"
StepAlgorithm="Verlet"
  VerletSteps=40
Kernel="Wendland"
  Wendland.awen=60909.76
  Wendland.bwen=-1.602896e+07
Viscosity="Artificial"
  Visco=0.02
  ViscoBoundFactor=0
DensityDiffusion="Molteni and Colagrossi 2009"
  DensityDiffusionValue=0.1
Shifting="None"
RigidAlgorithm="None"
FloatingCount=0
CaseNp=1566534
CaseNbound=800454
CaseNfixed=800454
CaseNmoving=0
CaseNfloat=0
CaseNfluid=766080
PeriodicActive="None"
Dp=0.0095
KernelH=0.019000  (CoefficientH=1.1547; H/Dp=2)
KernelSize=0.038
CteB=298224
Gamma=7
RhopZero=1000
Cs0=45.68991135907357
CFLnumber=0.2
DtIni=0.0004158467115362258
DtMin=2.079233588664123e-05
DtAllParticles=False
MassFluid=0.000857375
MassBound=0.000857375
TimeMax=4
TimePart=4.1
Gravity=(0,0,-9.81)
NpMinimum=800454
RhopOut=True
RhopOutMin=700
RhopOutMax=1300
WrnPartsOut=True
CellMode="Full"
ScellDiv=1
MapCells=(86,28,81)
CellDomFixed=False
**Requested GPU memory for 1566662 particles: 215.1 MB (0 times).
DomCells=(86,28,81)
DomCellCode="1+11_9_11"
 
BlockSize calculation mode: Fixed.
  BsForcesBound=128 (48 regs)
  BsForcesFluid=128 (60 regs)
 
**CellDiv: Requested gpu memory for 1644988 particles: 12.7 MB.
**CellDiv: Requested gpu memory for 17255 cells (CellMode=Full): 0.3 MB.
 
RunMode="Pos-Cell - Single-GPU"
 
Particle summary:
  Fixed....: 800454  id:(0-800453)   MKs:2 (10-11)
  Moving...: 0
  Floating.: 0
  Fluid....: 766080  id:(800454-1566533)   MKs:1 (1)

Total particles: 1566534 (bound=800454 (fx=800454 mv=0 ft=0) fluid=766080)
Total MK blocks: 3 (bound=2 (fx=2 mv=0 ft=0) fluid=1)
 
Allocated memory in CPU: 141045660 (134.51 MB)
Allocated memory in GPU: 239191224 (228.11 MB)
Part_0000        1566534 particles successfully stored

[Initialising simulation (41n51jso)  24-01-2026 23:21:26]
PART       PartTime      TotalSteps    Steps    Time/Sec   Finish time        
=========  ============  ============  =======  =========  ===================
**CellDiv: Requested gpu memory for 19720 cells (CellMode=Full): 0.3 MB.
**CellDiv: Requested gpu memory for 22678 cells (CellMode=Full): 0.3 MB.
**CellDiv: Requested gpu memory for 25636 cells (CellMode=Full): 0.4 MB.
**CellDiv: Requested gpu memory for 29232 cells (CellMode=Full): 0.4 MB.
  Progress 10.88% in 30.0s. Estimated finish time: 24-01-2026 23:26:01
**CellDiv: Requested gpu memory for 32944 cells (CellMode=Full): 0.5 MB.
**CellDiv: Requested gpu memory for 37120 cells (CellMode=Full): 0.6 MB.
**CellDiv: Requested gpu memory for 42804 cells (CellMode=Full): 0.7 MB.
**CellDiv: Requested gpu memory for 49300 cells (CellMode=Full): 0.8 MB.
**CellDiv: Requested gpu memory for 55506 cells (CellMode=Full): 0.8 MB.
**CellDiv: Requested gpu memory for 63075 cells (CellMode=Full): 1.0 MB.
  Progress 17.78% in 60.0s. Estimated finish time: 24-01-2026 23:27:03
**CellDiv: Requested gpu memory for 70644 cells (CellMode=Full): 1.1 MB.
**CellDiv: Requested gpu memory for 78213 cells (CellMode=Full): 1.2 MB.
**CellDiv: Requested gpu memory for 85782 cells (CellMode=Full): 1.3 MB.
**CellDiv: Requested gpu memory for 93351 cells (CellMode=Full): 1.4 MB.
**CellDiv: Requested gpu memory for 100920 cells (CellMode=Full): 1.5 MB.
**CellDiv: Requested gpu memory for 108489 cells (CellMode=Full): 1.7 MB.
**CellDiv: Requested gpu memory for 118581 cells (CellMode=Full): 1.8 MB.
**CellDiv: Requested gpu memory for 128673 cells (CellMode=Full): 2.0 MB.
**CellDiv: Requested gpu memory for 138765 cells (CellMode=Full): 2.1 MB.
  Progress 93.45% in 300.0s. Estimated finish time: 24-01-2026 23:26:47

[Simulation finished  24-01-2026 23:26:52]
Particles of simulation (initial): 1566534
DTs adjusted to DtMin............: 0
Excluded particles...............: 0
Total Runtime....................: 326.500031 sec.
Simulation Runtime...............: 326.085541 sec.
Runtime per physical second......: 81.521317 sec.
Steps per second.................: 206.626770
Steps of simulation..............: 67378
PART files.......................: 1
Maximum number of particles......: 1566534
Maximum number of cells..........: 130032
CPU Memory.......................: 141045660 (134.51 MB)
GPU Memory.......................: 241135384 (229.96 MB)
 
[GPU Timers]
VA-Init..........................: 0.414441 sec.
NL-Limits........................: 4.664404 sec.
NL-PreSort.......................: 0.209897 sec.
NL-RadixSort.....................: 28.231945 sec.
NL-CellBegin.....................: 2.089753 sec.
NL-SortData......................: 0.556500 sec.
NL-OutCheck......................: 5.919657 sec.
CF-PreForces.....................: 3.618205 sec.
CF-Forces........................: 280.107535 sec.
SU-Shifting......................: 0 sec.
SU-ComputeStep...................: 0.439854 sec.
SU-Floating......................: 0 sec.
SU-Motion........................: 0 sec.
SU-Periodic......................: 0 sec.
SU-ResizeNp......................: 0 sec.
SU-DownData......................: 0 sec.
SU-SavePart......................: 0 sec.
SU-Chrono........................: 0 sec.
SU-Moorings......................: 0 sec.
SU-InOut.........................: 0 sec.
SU-Gauges........................: 0 sec.
 
[Output files]
- CfgInit_Domain.vtk...: Saves the limits of the case and the simulation domain limits.
- CfgInit_MapCells.vtk.: Saves the cell division of the simulation domain.
- Run.csv..............: One line CSV file with execution parameters and other simulation data.
- Run.out..............: Log file of the simulation.
- data/PartInfo.ibi4...: Binary file with execution information for each instant (input for PartInfo program).
- data/PartOut_???.obi4: Binary file with particles excluded during simulation (input for PartVtkOut program).
- data/Part_????.bi4...: Binary file with particle data in different instants.
- data/Part_Head.ibi4..: Binary file with basic information of simulation data.
 
[References]
- Official solver reference DualSPHysics v5.0: J.M. Dominguez, G. Fourtakas,
    C. Altomare, R.B. Canelas, A. Tafuni, O. Garcia-Feal, I. Martinez-Estevez,
    A. Mokos, R. Vacondio, A.J.C. Crespo, B.D. Rogers, P.K. Stansby, M. Gomez-Gesteira.
    2022. DualSPHysics: from fluid dynamics to multiphysics problems.
    Computational Particle Mechanics, 9:867-895. doi: https://doi.org/10.1007/s40571-021-00404-2

- Optimised CPU multi-core and GPU implementation (Dominguez et al., 2013  https://doi.org/10.1016/j.cpc.2012.10.015)
- Dynamic boundary conditions (Crespo et al., 2007  https://doi.org/10.3970/cmc.2007.005.173)
- Density diffusion Term: Molteni (Molteni and Colagrossi, 2009  https://doi.org/10.1016/j.cpc.2008.12.004)
- Viscosity: Artificial (Monaghan, 1992  https://doi.org/10.1146/annurev.aa.30.090192.002551)
- Viscosity: ViscoBoundFactor coefficient (Barreiro et al., 2014  https://doi.org/10.1371/journal.pone.0111031)
- Kernel: Quintic Wendland (Wendland, 1995  https://doi.org/10.1007/BF02123482)
- Time integration scheme: Verlet (Verlet, 1967  https://doi.org/10.1103/PhysRev.159.98)

Finished execution (code=0).

