

 <DUALSPHYSICS5> Copyright (c) 2023 by
 Dr Jose M. Dominguez Alonso, Dr Alejandro Crespo,
 Prof. Moncho Gomez Gesteira, Prof. Benedict Rogers,
 Dr Georgios Fourtakas, Prof. Peter Stansby,
 Dr Renato Vacondio, Dr Corrado Altomare, Dr Angelo Tafuni,
 Dr Orlando Garcia Feal, Ivan Martinez Estevez,
 Dr Joseph O'Connor, Dr Aaron English

 EPHYSLAB Environmental Physics Laboratory, Universidade de Vigo
 School of Mechanical, Aerospace and Civil Engineering, University of Manchester

 DualSPHysics is free software: you can redistribute it and/or
 modify it under the terms of the GNU Lesser General Public License
 as published by the Free Software Foundation, either version 2.1 of
 the License, or (at your option) any later version.

 DualSPHysics is distributed in the hope that it will be useful,
 but WITHOUT ANY WARRANTY; without even the implied warranty of
 MERCHANTABILITY or FITNESS FOR A PARTICULAR PURPOSE.  See the
 GNU Lesser General Public License for more details.

 You should have received a copy of the GNU Lesser General Public License
 along with DualSPHysics. If not, see <http://www.gnu.org/licenses/>.

 Free download source files and documentation from DualSPHysics website (http://dual.sphysics.org).
 Full list of developers and contributors is available at https://dual.sphysics.org/developers
 Properly cite the use of DualSPHysics (Dominguez et al., 2022) (https://dual.sphysics.org/references).


DualSPHysics5 v5.2.269 (03-04-2023)
====================================
[CUDA Capable device(s)]
  Detected 1 CUDA Capable device(s)
  CUDA Driver Version / Runtime Version: 13.0 / 11.7
 
Device 0: "NVIDIA H100 NVL"
  CUDA Capability Major....: 9.0
  Global memory............: 95320 MBytes
  CUDA Cores...............: 0 (132 Multiprocessors,   0 CUDA Cores/MP)
  GPU Max Clock rate.......: 1785 MHz (1.78 GHz)
  Memory Clock rate........: 2619 Mhz
  Memory Bus Width.........: 6016-bit
  L2 Cache Size............: 61440 KBytes
  Constant memory..........: 64 KBytes
  Shared memory per block..: 48 KBytes
  Registers per block......: 65536
  Maximum threads per MP...: 2048
  Maximum threads per block: 1024
  Concurrent copy and kernel execution....: Yes with 3 copy engine(s)
  Run time limit on kernels...............: No
  Integrated GPU sharing Host Memory......: No
  Support host page-locked memory mapping.: Yes
  Device has ECC support..................: Enabled
  Device supports Unified Addressing (UVA): Yes
  Device PCI (Domain / Bus / location)....: 0 / 7 / 0
  Device supports P2P and RDMA............: Yes
  Device supports P2P from/to GPUs........: 
 
[GPU Hardware]
Device default: 0 "NVIDIA H100 NVL"
Compute capability: 9.0
Memory global: 95319 MB
Memory shared: 49152 Bytes
 
[Initialising JSphGpuSingle  24-01-2026 22:03:28]
ProgramFile=".../bin/linux/DualSPHysics5.2_linux64"
ExecutionDir=".../sph-benchmarks5/damBreak3D/resoucres_dualsphysics"
XmlFile=".../resoucres_dualsphysics/damBreak3D_WCSPH-DBC_out/damBreak3D_WCSPH-DBC.xml"
OutputDir=".../damBreak3D/resoucres_dualsphysics/damBreak3D_WCSPH-DBC_out"
OutputDataDir=".../resoucres_dualsphysics/damBreak3D_WCSPH-DBC_out/data"
XML-App: GenCase v5.0.278 (24-04-2023)
XML-Vars (uservars + ctes): Boxpx1=[0.665]  Boxpx2=[0.815]  Boxpy1=[0.305]  Boxpy2=[0.695]  Boxpz2=[0.155]  DefBoxpx=[0.66]  DefBoxpy=[0.3]  DefBoxsx=[0.16]  DefBoxsy=[0.4]  DefBoxsz=[0.16]  DefTankpx=[0]  DefTankpy=[0]  DefTankpz=[0]  DefTanksx=[3.22]  DefTanksy=[1]  DefTanksz=[2]  Dpm=[0.0075]  MResId=[0]  Tankpx1=[0.005]  Tankpx2=[3.215]  Tankpy1=[0.005]  Tankpy2=[0.995]  Tankpz1=[0.005]  Tankpz2=[2]  CaseName=["damBreak3D_WCSPH-DBC"]  Data2D=[0]  Data2DPosy=[0]  H=[0.03]  KernelSize=[0.06]  B=[285891]  Gamma=[7]  Rhop0=[1000]  Dp=[0.015]  Gravity_x=[0]  Gravity_y=[0]  Gravity_z=[-9.81]  MassFluid=[0.003375]  MassBound=[0.003375]
XML-Vars (parameters): TimeMax=[4]  TimeOut=[4.1]
**Basic case configuration is loaded
**Special case configuration is loaded
Loading initial state of particles...
Loaded particles: 504417
MapRealPos(border)=(-0.0265,-0.0265,-0.0265)-(3.2465,1.0265,2.0315)
MapRealPos(final)=(-0.0265,-0.0265,-0.0265)-(3.2465,1.0265,3.0605)
**Initial state of particles is loaded
PosCellCode="13_10_9 (8192,1024,512)"
PosCellSize=0.060000  (1 x KernelSize)
**3D-Simulation parameters:
CaseName="damBreak3D_WCSPH-DBC"
RunName="damBreak3D_WCSPH-DBC"
Symmetry=False
SavePosDouble=False
SvExtraParts=""
SaveFtAce=False
SvTimers=True
Boundary="DBC"
StepAlgorithm="Verlet"
  VerletSteps=40
Kernel="Wendland"
  Wendland.awen=15473.33
  Wendland.bwen=-2578902
Viscosity="Artificial"
  Visco=0.02
  ViscoBoundFactor=0
DensityDiffusion="Molteni and Colagrossi 2009"
  DensityDiffusionValue=0.1
Shifting="None"
RigidAlgorithm="None"
FloatingCount=0
CaseNp=504417
CaseNbound=320142
CaseNfixed=320142
CaseNmoving=0
CaseNfloat=0
CaseNfluid=184275
PeriodicActive="None"
Dp=0.015
KernelH=0.030000  (CoefficientH=1.1547; H/Dp=2)
KernelSize=0.06
CteB=285891.4
Gamma=7
RhopZero=1000
Cs0=44.73522172181558
CFLnumber=0.2
DtIni=0.000670612510115669
DtMin=3.353062600542871e-05
DtAllParticles=False
MassFluid=0.003375
MassBound=0.003375
TimeMax=4
TimePart=4.1
Gravity=(0,0,-9.81)
NpMinimum=320142
RhopOut=True
RhopOutMin=700
RhopOutMax=1300
WrnPartsOut=True
CellMode="Full"
ScellDiv=1
MapCells=(55,18,52)
CellDomFixed=False
**Requested GPU memory for 504545 particles: 69.3 MB (0 times).
DomCells=(55,18,52)
DomCellCode="1+11_10_10"
 
BlockSize calculation mode: Fixed.
  BsForcesBound=128 (48 regs)
  BsForcesFluid=128 (60 regs)
 
**CellDiv: Requested gpu memory for 529765 particles: 4.1 MB.
**CellDiv: Requested gpu memory for 5472 cells (CellMode=Full): 0.1 MB.
 
RunMode="Pos-Cell - Single-GPU"
 
Particle summary:
  Fixed....: 320142  id:(0-320141)   MKs:2 (10-11)
  Moving...: 0
  Floating.: 0
  Fluid....: 184275  id:(320142-504416)   MKs:1 (1)

Total particles: 504417 (bound=320142 (fx=320142 mv=0 ft=0) fluid=184275)
Total MK blocks: 3 (bound=2 (fx=2 mv=0 ft=0) fluid=1)
 
Allocated memory in CPU: 45455130 (43.35 MB)
Allocated memory in GPU: 77031112 (73.46 MB)
Part_0000        504417 particles successfully stored

[Initialising simulation (m6u651fk)  24-01-2026 22:03:28]
PART       PartTime      TotalSteps    Steps    Time/Sec   Finish time        
=========  ============  ============  =======  =========  ===================
**CellDiv: Requested gpu memory for 6612 cells (CellMode=Full): 0.1 MB.
**CellDiv: Requested gpu memory for 7942 cells (CellMode=Full): 0.1 MB.
**CellDiv: Requested gpu memory for 9614 cells (CellMode=Full): 0.1 MB.
**CellDiv: Requested gpu memory for 12084 cells (CellMode=Full): 0.2 MB.
**CellDiv: Requested gpu memory for 14896 cells (CellMode=Full): 0.2 MB.
  Progress 46.02% in 30.0s. Estimated finish time: 24-01-2026 22:04:33

[Simulation finished  24-01-2026 22:04:28]
Particles of simulation (initial): 504417
DTs adjusted to DtMin............: 0
Excluded particles...............: 0
Total Runtime....................: 59.988300 sec.
Simulation Runtime...............: 59.761318 sec.
Runtime per physical second......: 14.940114 sec.
Steps per second.................: 601.208313
Steps of simulation..............: 35929
PART files.......................: 1
Maximum number of particles......: 504417
Maximum number of cells..........: 13860
CPU Memory.......................: 45455130 (43.35 MB)
GPU Memory.......................: 77181896 (73.61 MB)
 
[GPU Timers]
VA-Init..........................: 0.226998 sec.
NL-Limits........................: 1.172587 sec.
NL-PreSort.......................: 0.076728 sec.
NL-RadixSort.....................: 4.234385 sec.
NL-CellBegin.....................: 1.078378 sec.
NL-SortData......................: 0.227442 sec.
NL-OutCheck......................: 1.097332 sec.
CF-PreForces.....................: 1.466959 sec.
CF-Forces........................: 50.193816 sec.
SU-Shifting......................: 0 sec.
SU-ComputeStep...................: 0.156535 sec.
SU-Floating......................: 0 sec.
SU-Motion........................: 0 sec.
SU-Periodic......................: 0 sec.
SU-ResizeNp......................: 0 sec.
SU-DownData......................: 0 sec.
SU-SavePart......................: 0 sec.
SU-Chrono........................: 0 sec.
SU-Moorings......................: 0 sec.
SU-InOut.........................: 0 sec.
SU-Gauges........................: 0 sec.
 
[Output files]
- CfgInit_Domain.vtk...: Saves the limits of the case and the simulation domain limits.
- CfgInit_MapCells.vtk.: Saves the cell division of the simulation domain.
- Run.csv..............: One line CSV file with execution parameters and other simulation data.
- Run.out..............: Log file of the simulation.
- data/PartInfo.ibi4...: Binary file with execution information for each instant (input for PartInfo program).
- data/PartOut_???.obi4: Binary file with particles excluded during simulation (input for PartVtkOut program).
- data/Part_????.bi4...: Binary file with particle data in different instants.
- data/Part_Head.ibi4..: Binary file with basic information of simulation data.
 
[References]
- Official solver reference DualSPHysics v5.0: J.M. Dominguez, G. Fourtakas,
    C. Altomare, R.B. Canelas, A. Tafuni, O. Garcia-Feal, I. Martinez-Estevez,
    A. Mokos, R. Vacondio, A.J.C. Crespo, B.D. Rogers, P.K. Stansby, M. Gomez-Gesteira.
    2022. DualSPHysics: from fluid dynamics to multiphysics problems.
    Computational Particle Mechanics, 9:867-895. doi: https://doi.org/10.1007/s40571-021-00404-2

- Optimised CPU multi-core and GPU implementation (Dominguez et al., 2013  https://doi.org/10.1016/j.cpc.2012.10.015)
- Dynamic boundary conditions (Crespo et al., 2007  https://doi.org/10.3970/cmc.2007.005.173)
- Density diffusion Term: Molteni (Molteni and Colagrossi, 2009  https://doi.org/10.1016/j.cpc.2008.12.004)
- Viscosity: Artificial (Monaghan, 1992  https://doi.org/10.1146/annurev.aa.30.090192.002551)
- Viscosity: ViscoBoundFactor coefficient (Barreiro et al., 2014  https://doi.org/10.1371/journal.pone.0111031)
- Kernel: Quintic Wendland (Wendland, 1995  https://doi.org/10.1007/BF02123482)
- Time integration scheme: Verlet (Verlet, 1967  https://doi.org/10.1103/PhysRev.159.98)

Finished execution (code=0).

