

 <DUALSPHYSICS5> Copyright (c) 2023 by
 Dr Jose M. Dominguez Alonso, Dr Alejandro Crespo,
 Prof. Moncho Gomez Gesteira, Prof. Benedict Rogers,
 Dr Georgios Fourtakas, Prof. Peter Stansby,
 Dr Renato Vacondio, Dr Corrado Altomare, Dr Angelo Tafuni,
 Dr Orlando Garcia Feal, Ivan Martinez Estevez,
 Dr Joseph O'Connor, Dr Aaron English

 EPHYSLAB Environmental Physics Laboratory, Universidade de Vigo
 School of Mechanical, Aerospace and Civil Engineering, University of Manchester

 DualSPHysics is free software: you can redistribute it and/or
 modify it under the terms of the GNU Lesser General Public License
 as published by the Free Software Foundation, either version 2.1 of
 the License, or (at your option) any later version.

 DualSPHysics is distributed in the hope that it will be useful,
 but WITHOUT ANY WARRANTY; without even the implied warranty of
 MERCHANTABILITY or FITNESS FOR A PARTICULAR PURPOSE.  See the
 GNU Lesser General Public License for more details.

 You should have received a copy of the GNU Lesser General Public License
 along with DualSPHysics. If not, see <http://www.gnu.org/licenses/>.

 Free download source files and documentation from DualSPHysics website (http://dual.sphysics.org).
 Full list of developers and contributors is available at https://dual.sphysics.org/developers
 Properly cite the use of DualSPHysics (Dominguez et al., 2022) (https://dual.sphysics.org/references).


DualSPHysics5 v5.2.269 (03-04-2023)
====================================
[CUDA Capable device(s)]
  Detected 1 CUDA Capable device(s)
  CUDA Driver Version / Runtime Version: 12.4 / 11.7
 
Device 0: "NVIDIA A40"
  CUDA Capability Major....: 8.6
  Global memory............: 45403 MBytes
  CUDA Cores...............: 10752 (84 Multiprocessors, 128 CUDA Cores/MP)
  GPU Max Clock rate.......: 1740 MHz (1.74 GHz)
  Memory Clock rate........: 7251 Mhz
  Memory Bus Width.........: 384-bit
  L2 Cache Size............: 6144 KBytes
  Constant memory..........: 64 KBytes
  Shared memory per block..: 48 KBytes
  Registers per block......: 65536
  Maximum threads per MP...: 1536
  Maximum threads per block: 1024
  Concurrent copy and kernel execution....: Yes with 2 copy engine(s)
  Run time limit on kernels...............: No
  Integrated GPU sharing Host Memory......: No
  Support host page-locked memory mapping.: Yes
  Device has ECC support..................: Enabled
  Device supports Unified Addressing (UVA): Yes
  Device PCI (Domain / Bus / location)....: 0 / 225 / 0
  Device supports P2P and RDMA............: Yes
  Device supports P2P from/to GPUs........: 
 
[GPU Hardware]
Device default: 0 "NVIDIA A40"
Compute capability: 8.6
Memory global: 45403 MB
Memory shared: 49152 Bytes
 
[Initialising JSphGpuSingle  24-06-2024 15:06:35]
ProgramFile=".../bin/linux/DualSPHysics5.2_linux64"
ExecutionDir=".../sph-benchmarks-test/damBreak3D/resoucres_dualsphysics"
XmlFile=".../resoucres_dualsphysics/damBreak3D_WCSPH-DBC_out/damBreak3D_WCSPH-DBC.xml"
OutputDir=".../damBreak3D/resoucres_dualsphysics/damBreak3D_WCSPH-DBC_out"
OutputDataDir=".../resoucres_dualsphysics/damBreak3D_WCSPH-DBC_out/data"
XML-App: GenCase v5.0.278 (24-04-2023)
XML-Vars (uservars + ctes): Boxpx1=[0.66]  Boxpx2=[0.82]  Boxpy1=[0.3]  Boxpy2=[0.7]  Boxpz2=[0.16]  DefBoxpx=[0.66]  DefBoxpy=[0.3]  DefBoxsx=[0.16]  DefBoxsy=[0.4]  DefBoxsz=[0.16]  DefTankpx=[0]  DefTankpy=[0]  DefTankpz=[0]  DefTanksx=[3.22]  DefTanksy=[1]  DefTanksz=[1]  Dpm=[0.01]  MResId=[0]  Tankpx1=[0]  Tankpx2=[3.22]  Tankpy1=[0]  Tankpy2=[1]  Tankpz1=[0]  Tankpz2=[1]  CaseName=["damBreak3D_WCSPH-DBC"]  Data2D=[0]  Data2DPosy=[0]  H=[0.04]  KernelSize=[0.08]  B=[291497]  Gamma=[7]  Rhop0=[1000]  Dp=[0.02]  Gravity_x=[0]  Gravity_y=[0]  Gravity_z=[-9.81]  MassFluid=[0.008]  MassBound=[0.008]
XML-Vars (parameters): TimeMax=[1]  TimeOut=[1]
**Basic case configuration is loaded
**Special case configuration is loaded
Loading initial state of particles...
Loaded particles: 172422
MapRealPos(border)=(-0.042,-0.042,-0.042)-(3.262,1.042,1.002)
MapRealPos(final)=(-0.042,-0.042,-0.042)-(3.262,1.042,1.524)
**Initial state of particles is loaded
PosCellCode="13_10_9 (8192,1024,512)"
PosCellSize=0.080000  (1 x KernelSize)
**3D-Simulation parameters:
CaseName="damBreak3D_WCSPH-DBC"
RunName="damBreak3D_WCSPH-DBC"
Symmetry=False
SavePosDouble=False
SvExtraParts=""
SaveFtAce=False
SvTimers=True
Boundary="DBC"
StepAlgorithm="Verlet"
  VerletSteps=40
Kernel="Wendland"
  Wendland.awen=6527.813
  Wendland.bwen=-815980.6
Viscosity="Artificial"
  Visco=0.02
  ViscoBoundFactor=0
DensityDiffusion="Molteni and Colagrossi 2009"
  DensityDiffusionValue=0.1
Shifting="None"
RigidAlgorithm="None"
FloatingCount=0
CaseNp=172422
CaseNbound=93042
CaseNfixed=93042
CaseNmoving=0
CaseNfloat=0
CaseNfluid=79380
PeriodicActive="None"
Dp=0.02
KernelH=0.040000  (CoefficientH=1.1547; H/Dp=2)
KernelSize=0.08
CteB=291497.2
Gamma=7
RhopZero=1000
Cs0=45.17167357703276
CFLnumber=0.2
DtIni=0.0008855106738012926
DtMin=0.0000442755343498215
DtAllParticles=False
MassFluid=0.008
MassBound=0.008
TimeMax=1
TimePart=1
Gravity=(0,0,-9.81)
NpMinimum=93042
RhopOut=True
RhopOutMin=700
RhopOutMax=1300
WrnPartsOut=True
CellMode="Full"
ScellDiv=1
MapCells=(42,14,20)
CellDomFixed=False
**Requested GPU memory for 172550 particles: 23.7 MB (0 times).
DomCells=(42,14,20)
DomCellCode="1+12_9_10"
 
BlockSize calculation mode: Fixed.
  BsForcesBound=128 (39 regs)
  BsForcesFluid=128 (48 regs)
 
**CellDiv: Requested gpu memory for 181171 particles: 1.4 MB.
**CellDiv: Requested gpu memory for 2850 cells (CellMode=Full): 0.0 MB.
 
RunMode="Pos-Cell - Single-GPU"
 
Particle summary:
  Fixed....: 93042  id:(0-93041)   MKs:2 (10-11)
  Moving...: 0
  Floating.: 0
  Fluid....: 79380  id:(93042-172421)   MKs:1 (1)

Total particles: 172422 (bound=93042 (fx=93042 mv=0 ft=0) fluid=79380)
Total MK blocks: 3 (bound=2 (fx=2 mv=0 ft=0) fluid=1)
 
Allocated memory in CPU: 15575580 (14.85 MB)
Allocated memory in GPU: 26360296 (25.14 MB)
Part_0000        172422 particles successfully stored

[Initialising simulation (ph0i6fqj)  24-06-2024 15:06:35]
PART       PartTime      TotalSteps    Steps    Time/Sec   Finish time        
=========  ============  ============  =======  =========  ===================
**CellDiv: Requested gpu memory for 3600 cells (CellMode=Full): 0.1 MB.
**CellDiv: Requested gpu memory for 4590 cells (CellMode=Full): 0.1 MB.
**CellDiv: Requested gpu memory for 5670 cells (CellMode=Full): 0.1 MB.
Part_0001      1.000014          7673     7673      10.15  24-06-2024 15:06:45

[Simulation finished  24-06-2024 15:06:45]
Particles of simulation (initial): 172422
DTs adjusted to DtMin............: 0
Excluded particles...............: 0
Total Runtime....................: 10.243976 sec.
Simulation Runtime...............: 10.152071 sec.
Runtime per physical second......: 10.151924 sec.
Steps per second.................: 755.806396
Steps of simulation..............: 7673
PART files.......................: 2
Maximum number of particles......: 172422
Maximum number of cells..........: 5292
CPU Memory.......................: 15575580 (14.85 MB)
GPU Memory.......................: 26405416 (25.18 MB)
 
[GPU Timers]
VA-Init..........................: 0.091897 sec.
NL-Limits........................: 0.458043 sec.
NL-PreSort.......................: 0.015832 sec.
NL-RadixSort.....................: 0.835606 sec.
NL-CellBegin.....................: 0.172978 sec.
NL-SortData......................: 0.050368 sec.
NL-OutCheck......................: 0.587841 sec.
CF-PreForces.....................: 0.299680 sec.
CF-Forces........................: 7.655156 sec.
SU-Shifting......................: 0 sec.
SU-ComputeStep...................: 0.034185 sec.
SU-Floating......................: 0 sec.
SU-Motion........................: 0 sec.
SU-Periodic......................: 0 sec.
SU-ResizeNp......................: 0 sec.
SU-DownData......................: 0.004899 sec.
SU-SavePart......................: 0.027634 sec.
SU-Chrono........................: 0 sec.
SU-Moorings......................: 0 sec.
SU-InOut.........................: 0 sec.
SU-Gauges........................: 0 sec.
 
[Output files]
- CfgInit_Domain.vtk...: Saves the limits of the case and the simulation domain limits.
- CfgInit_MapCells.vtk.: Saves the cell division of the simulation domain.
- Run.csv..............: One line CSV file with execution parameters and other simulation data.
- Run.out..............: Log file of the simulation.
- data/PartInfo.ibi4...: Binary file with execution information for each instant (input for PartInfo program).
- data/PartOut_???.obi4: Binary file with particles excluded during simulation (input for PartVtkOut program).
- data/Part_????.bi4...: Binary file with particle data in different instants.
- data/Part_Head.ibi4..: Binary file with basic information of simulation data.
 
[References]
- Official solver reference DualSPHysics v5.0: J.M. Dominguez, G. Fourtakas,
    C. Altomare, R.B. Canelas, A. Tafuni, O. Garcia-Feal, I. Martinez-Estevez,
    A. Mokos, R. Vacondio, A.J.C. Crespo, B.D. Rogers, P.K. Stansby, M. Gomez-Gesteira.
    2022. DualSPHysics: from fluid dynamics to multiphysics problems.
    Computational Particle Mechanics, 9:867-895. doi: https://doi.org/10.1007/s40571-021-00404-2

- Optimised CPU multi-core and GPU implementation (Dominguez et al., 2013  https://doi.org/10.1016/j.cpc.2012.10.015)
- Dynamic boundary conditions (Crespo et al., 2007  https://doi.org/10.3970/cmc.2007.005.173)
- Density diffusion Term: Molteni (Molteni and Colagrossi, 2009  https://doi.org/10.1016/j.cpc.2008.12.004)
- Viscosity: Artificial (Monaghan, 1992  https://doi.org/10.1146/annurev.aa.30.090192.002551)
- Viscosity: ViscoBoundFactor coefficient (Barreiro et al., 2014  https://doi.org/10.1371/journal.pone.0111031)
- Kernel: Quintic Wendland (Wendland, 1995  https://doi.org/10.1007/BF02123482)
- Time integration scheme: Verlet (Verlet, 1967  https://doi.org/10.1103/PhysRev.159.98)

Finished execution (code=0).

