

 <DUALSPHYSICS5> Copyright (c) 2023 by
 Dr Jose M. Dominguez Alonso, Dr Alejandro Crespo,
 Prof. Moncho Gomez Gesteira, Prof. Benedict Rogers,
 Dr Georgios Fourtakas, Prof. Peter Stansby,
 Dr Renato Vacondio, Dr Corrado Altomare, Dr Angelo Tafuni,
 Dr Orlando Garcia Feal, Ivan Martinez Estevez,
 Dr Joseph O'Connor, Dr Aaron English

 EPHYSLAB Environmental Physics Laboratory, Universidade de Vigo
 School of Mechanical, Aerospace and Civil Engineering, University of Manchester

 DualSPHysics is free software: you can redistribute it and/or
 modify it under the terms of the GNU Lesser General Public License
 as published by the Free Software Foundation, either version 2.1 of
 the License, or (at your option) any later version.

 DualSPHysics is distributed in the hope that it will be useful,
 but WITHOUT ANY WARRANTY; without even the implied warranty of
 MERCHANTABILITY or FITNESS FOR A PARTICULAR PURPOSE.  See the
 GNU Lesser General Public License for more details.

 You should have received a copy of the GNU Lesser General Public License
 along with DualSPHysics. If not, see <http://www.gnu.org/licenses/>.

 Free download source files and documentation from DualSPHysics website (http://dual.sphysics.org).
 Full list of developers and contributors is available at https://dual.sphysics.org/developers
 Properly cite the use of DualSPHysics (Dominguez et al., 2022) (https://dual.sphysics.org/references).


DualSPHysics5 v5.2.269 (03-04-2023)
====================================
[CUDA Capable device(s)]
  Detected 1 CUDA Capable device(s)
  CUDA Driver Version / Runtime Version: 12.4 / 11.7
 
Device 0: "NVIDIA A40"
  CUDA Capability Major....: 8.6
  Global memory............: 45403 MBytes
  CUDA Cores...............: 10752 (84 Multiprocessors, 128 CUDA Cores/MP)
  GPU Max Clock rate.......: 1740 MHz (1.74 GHz)
  Memory Clock rate........: 7251 Mhz
  Memory Bus Width.........: 384-bit
  L2 Cache Size............: 6144 KBytes
  Constant memory..........: 64 KBytes
  Shared memory per block..: 48 KBytes
  Registers per block......: 65536
  Maximum threads per MP...: 1536
  Maximum threads per block: 1024
  Concurrent copy and kernel execution....: Yes with 2 copy engine(s)
  Run time limit on kernels...............: No
  Integrated GPU sharing Host Memory......: No
  Support host page-locked memory mapping.: Yes
  Device has ECC support..................: Enabled
  Device supports Unified Addressing (UVA): Yes
  Device PCI (Domain / Bus / location)....: 0 / 225 / 0
  Device supports P2P and RDMA............: Yes
  Device supports P2P from/to GPUs........: 
 
[GPU Hardware]
Device default: 0 "NVIDIA A40"
Compute capability: 8.6
Memory global: 45403 MB
Memory shared: 49152 Bytes
 
[Initialising JSphGpuSingle  24-06-2024 15:14:56]
ProgramFile=".../bin/linux/DualSPHysics5.2_linux64"
ExecutionDir=".../sph-benchmarks-test/damBreak3D/resoucres_dualsphysics"
XmlFile=".../resoucres_dualsphysics/damBreak3D_WCSPH-DBC_out/damBreak3D_WCSPH-DBC.xml"
OutputDir=".../damBreak3D/resoucres_dualsphysics/damBreak3D_WCSPH-DBC_out"
OutputDataDir=".../resoucres_dualsphysics/damBreak3D_WCSPH-DBC_out/data"
XML-App: GenCase v5.0.278 (24-04-2023)
XML-Vars (uservars + ctes): Boxpx1=[0.664]  Boxpx2=[0.82]  Boxpy1=[0.3]  Boxpy2=[0.703]  Boxpz2=[0.157]  DefBoxpx=[0.66]  DefBoxpy=[0.3]  DefBoxsx=[0.16]  DefBoxsy=[0.4]  DefBoxsz=[0.16]  DefTankpx=[0]  DefTankpy=[0]  DefTankpz=[0]  DefTanksx=[3.22]  DefTanksy=[1]  DefTanksz=[1]  Dpm=[0.0065]  MResId=[0]  Tankpx1=[0.001]  Tankpx2=[3.225]  Tankpy1=[0.001]  Tankpy2=[1.002]  Tankpz1=[0.001]  Tankpz2=[1.002]  CaseName=["damBreak3D_WCSPH-DBC"]  Data2D=[0]  Data2DPosy=[0]  H=[0.026]  KernelSize=[0.052]  B=[291497]  Gamma=[7]  Rhop0=[1000]  Dp=[0.013]  Gravity_x=[0]  Gravity_y=[0]  Gravity_z=[-9.81]  MassFluid=[0.002197]  MassBound=[0.002197]
XML-Vars (parameters): TimeMax=[1]  TimeOut=[1]
**Basic case configuration is loaded
**Special case configuration is loaded
Loading initial state of particles...
Loaded particles: 509948
MapRealPos(border)=(-0.0263,-0.0263,-0.0263)-(3.2523,1.0293,1.0033)
MapRealPos(final)=(-0.0263,-0.0263,-0.0263)-(3.2523,1.0293,1.5181)
**Initial state of particles is loaded
PosCellCode="13_10_9 (8192,1024,512)"
PosCellSize=0.052000  (1 x KernelSize)
**3D-Simulation parameters:
CaseName="damBreak3D_WCSPH-DBC"
RunName="damBreak3D_WCSPH-DBC"
Symmetry=False
SavePosDouble=False
SvExtraParts=""
SaveFtAce=False
SvTimers=True
Boundary="DBC"
StepAlgorithm="Verlet"
  VerletSteps=40
Kernel="Wendland"
  Wendland.awen=23769.91
  Wendland.bwen=-4571158
Viscosity="Artificial"
  Visco=0.02
  ViscoBoundFactor=0
DensityDiffusion="Molteni and Colagrossi 2009"
  DensityDiffusionValue=0.1
Shifting="None"
RigidAlgorithm="None"
FloatingCount=0
CaseNp=509948
CaseNbound=217044
CaseNfixed=217044
CaseNmoving=0
CaseNfloat=0
CaseNfluid=292904
PeriodicActive="None"
Dp=0.013
KernelH=0.026000  (CoefficientH=1.1547; H/Dp=2)
KernelSize=0.052
CteB=291497.2
Gamma=7
RhopZero=1000
Cs0=45.17167357703276
CFLnumber=0.2
DtIni=0.0005755819627117232
DtMin=2.877909856442814e-05
DtAllParticles=False
MassFluid=0.002197
MassBound=0.002197
TimeMax=1
TimePart=1
Gravity=(0,0,-9.81)
NpMinimum=217044
RhopOut=True
RhopOutMin=700
RhopOutMax=1300
WrnPartsOut=True
CellMode="Full"
ScellDiv=1
MapCells=(64,21,30)
CellDomFixed=False
**Requested GPU memory for 510076 particles: 70.0 MB (0 times).
DomCells=(64,21,30)
DomCellCode="1+12_10_9"
 
BlockSize calculation mode: Fixed.
  BsForcesBound=128 (39 regs)
  BsForcesFluid=128 (48 regs)
 
**CellDiv: Requested gpu memory for 535573 particles: 4.1 MB.
**CellDiv: Requested gpu memory for 7722 cells (CellMode=Full): 0.1 MB.
 
RunMode="Pos-Cell - Single-GPU"
 
Particle summary:
  Fixed....: 217044  id:(0-217043)   MKs:2 (10-11)
  Moving...: 0
  Floating.: 0
  Fluid....: 292904  id:(217044-509947)   MKs:1 (1)

Total particles: 509948 (bound=217044 (fx=217044 mv=0 ft=0) fluid=292904)
Total MK blocks: 3 (bound=2 (fx=2 mv=0 ft=0) fluid=1)
 
Allocated memory in CPU: 45952920 (43.82 MB)
Allocated memory in GPU: 77910592 (74.30 MB)
Part_0000        509948 particles successfully stored

[Initialising simulation (rf5em13c)  24-06-2024 15:14:56]
PART       PartTime      TotalSteps    Steps    Time/Sec   Finish time        
=========  ============  ============  =======  =========  ===================
**CellDiv: Requested gpu memory for 9152 cells (CellMode=Full): 0.1 MB.
**CellDiv: Requested gpu memory for 10868 cells (CellMode=Full): 0.2 MB.
**CellDiv: Requested gpu memory for 12870 cells (CellMode=Full): 0.2 MB.
**CellDiv: Requested gpu memory for 15048 cells (CellMode=Full): 0.2 MB.
**CellDiv: Requested gpu memory for 17446 cells (CellMode=Full): 0.3 MB.
**CellDiv: Requested gpu memory for 20020 cells (CellMode=Full): 0.3 MB.
  Progress 69.31% in 30.0s. Estimated finish time: 24-06-2024 15:15:39
Part_0001      1.000087         12500    12500      44.00  24-06-2024 15:15:40

[Simulation finished  24-06-2024 15:15:40]
Particles of simulation (initial): 509948
DTs adjusted to DtMin............: 0
Excluded particles...............: 0
Total Runtime....................: 44.133755 sec.
Simulation Runtime...............: 44.004314 sec.
Runtime per physical second......: 44.000469 sec.
Steps per second.................: 284.063049
Steps of simulation..............: 12500
PART files.......................: 2
Maximum number of particles......: 509948
Maximum number of cells..........: 18816
CPU Memory.......................: 45952920 (43.82 MB)
GPU Memory.......................: 78107360 (74.49 MB)
 
[GPU Timers]
VA-Init..........................: 0.129438 sec.
NL-Limits........................: 1.946610 sec.
NL-PreSort.......................: 0.030088 sec.
NL-RadixSort.....................: 4.951702 sec.
NL-CellBegin.....................: 0.375882 sec.
NL-SortData......................: 0.094365 sec.
NL-OutCheck......................: 2.754612 sec.
CF-PreForces.....................: 0.790127 sec.
CF-Forces........................: 32.898043 sec.
SU-Shifting......................: 0 sec.
SU-ComputeStep...................: 0.065045 sec.
SU-Floating......................: 0 sec.
SU-Motion........................: 0 sec.
SU-Periodic......................: 0 sec.
SU-ResizeNp......................: 0 sec.
SU-DownData......................: 0.006668 sec.
SU-SavePart......................: 0.061393 sec.
SU-Chrono........................: 0 sec.
SU-Moorings......................: 0 sec.
SU-InOut.........................: 0 sec.
SU-Gauges........................: 0 sec.
 
[Output files]
- CfgInit_Domain.vtk...: Saves the limits of the case and the simulation domain limits.
- CfgInit_MapCells.vtk.: Saves the cell division of the simulation domain.
- Run.csv..............: One line CSV file with execution parameters and other simulation data.
- Run.out..............: Log file of the simulation.
- data/PartInfo.ibi4...: Binary file with execution information for each instant (input for PartInfo program).
- data/PartOut_???.obi4: Binary file with particles excluded during simulation (input for PartVtkOut program).
- data/Part_????.bi4...: Binary file with particle data in different instants.
- data/Part_Head.ibi4..: Binary file with basic information of simulation data.
 
[References]
- Official solver reference DualSPHysics v5.0: J.M. Dominguez, G. Fourtakas,
    C. Altomare, R.B. Canelas, A. Tafuni, O. Garcia-Feal, I. Martinez-Estevez,
    A. Mokos, R. Vacondio, A.J.C. Crespo, B.D. Rogers, P.K. Stansby, M. Gomez-Gesteira.
    2022. DualSPHysics: from fluid dynamics to multiphysics problems.
    Computational Particle Mechanics, 9:867-895. doi: https://doi.org/10.1007/s40571-021-00404-2

- Optimised CPU multi-core and GPU implementation (Dominguez et al., 2013  https://doi.org/10.1016/j.cpc.2012.10.015)
- Dynamic boundary conditions (Crespo et al., 2007  https://doi.org/10.3970/cmc.2007.005.173)
- Density diffusion Term: Molteni (Molteni and Colagrossi, 2009  https://doi.org/10.1016/j.cpc.2008.12.004)
- Viscosity: Artificial (Monaghan, 1992  https://doi.org/10.1146/annurev.aa.30.090192.002551)
- Viscosity: ViscoBoundFactor coefficient (Barreiro et al., 2014  https://doi.org/10.1371/journal.pone.0111031)
- Kernel: Quintic Wendland (Wendland, 1995  https://doi.org/10.1007/BF02123482)
- Time integration scheme: Verlet (Verlet, 1967  https://doi.org/10.1103/PhysRev.159.98)

Finished execution (code=0).

