

 <DUALSPHYSICS5> Copyright (c) 2023 by
 Dr Jose M. Dominguez Alonso, Dr Alejandro Crespo,
 Prof. Moncho Gomez Gesteira, Prof. Benedict Rogers,
 Dr Georgios Fourtakas, Prof. Peter Stansby,
 Dr Renato Vacondio, Dr Corrado Altomare, Dr Angelo Tafuni,
 Dr Orlando Garcia Feal, Ivan Martinez Estevez,
 Dr Joseph O'Connor, Dr Aaron English

 EPHYSLAB Environmental Physics Laboratory, Universidade de Vigo
 School of Mechanical, Aerospace and Civil Engineering, University of Manchester

 DualSPHysics is free software: you can redistribute it and/or
 modify it under the terms of the GNU Lesser General Public License
 as published by the Free Software Foundation, either version 2.1 of
 the License, or (at your option) any later version.

 DualSPHysics is distributed in the hope that it will be useful,
 but WITHOUT ANY WARRANTY; without even the implied warranty of
 MERCHANTABILITY or FITNESS FOR A PARTICULAR PURPOSE.  See the
 GNU Lesser General Public License for more details.

 You should have received a copy of the GNU Lesser General Public License
 along with DualSPHysics. If not, see <http://www.gnu.org/licenses/>.

 Free download source files and documentation from DualSPHysics website (http://dual.sphysics.org).
 Full list of developers and contributors is available at https://dual.sphysics.org/developers
 Properly cite the use of DualSPHysics (Dominguez et al., 2022) (https://dual.sphysics.org/references).


DualSPHysics5 v5.2.269 (03-04-2023)
====================================
[CUDA Capable device(s)]
  Detected 1 CUDA Capable device(s)
  CUDA Driver Version / Runtime Version: 12.4 / 11.7
 
Device 0: "NVIDIA A100-SXM4-40GB"
  CUDA Capability Major....: 8.0
  Global memory............: 40326 MBytes
  CUDA Cores...............: 6912 (108 Multiprocessors,  64 CUDA Cores/MP)
  GPU Max Clock rate.......: 1410 MHz (1.41 GHz)
  Memory Clock rate........: 1215 Mhz
  Memory Bus Width.........: 5120-bit
  L2 Cache Size............: 40960 KBytes
  Constant memory..........: 64 KBytes
  Shared memory per block..: 48 KBytes
  Registers per block......: 65536
  Maximum threads per MP...: 2048
  Maximum threads per block: 1024
  Concurrent copy and kernel execution....: Yes with 5 copy engine(s)
  Run time limit on kernels...............: No
  Integrated GPU sharing Host Memory......: No
  Support host page-locked memory mapping.: Yes
  Device has ECC support..................: Enabled
  Device supports Unified Addressing (UVA): Yes
  Device PCI (Domain / Bus / location)....: 0 / 49 / 0
  Device supports P2P and RDMA............: Yes
  Device supports P2P from/to GPUs........: 
 
[GPU Hardware]
Device default: 0 "NVIDIA A100-SXM4-40GB"
Compute capability: 8.0
Memory global: 40326 MB
Memory shared: 49152 Bytes
 
[Initialising JSphGpuSingle  24-06-2024 14:27:47]
ProgramFile=".../bin/linux/DualSPHysics5.2_linux64"
ExecutionDir=".../sph-benchmarks/damBreak3D/resoucres_dualsphysics"
XmlFile=".../resoucres_dualsphysics/damBreak3D_WCSPH-DBC_out/damBreak3D_WCSPH-DBC.xml"
OutputDir=".../damBreak3D/resoucres_dualsphysics/damBreak3D_WCSPH-DBC_out"
OutputDataDir=".../resoucres_dualsphysics/damBreak3D_WCSPH-DBC_out/data"
XML-App: GenCase v5.0.278 (24-04-2023)
XML-Vars (uservars + ctes): Boxpx1=[0.66]  Boxpx2=[0.82]  Boxpy1=[0.3]  Boxpy2=[0.7]  Boxpz2=[0.16]  DefBoxpx=[0.66]  DefBoxpy=[0.3]  DefBoxsx=[0.16]  DefBoxsy=[0.4]  DefBoxsz=[0.16]  DefTankpx=[0]  DefTankpy=[0]  DefTankpz=[0]  DefTanksx=[3.22]  DefTanksy=[1]  DefTanksz=[1]  Dpm=[0.0025]  MResId=[0]  Tankpx1=[0]  Tankpx2=[3.22]  Tankpy1=[0]  Tankpy2=[1]  Tankpz1=[0]  Tankpz2=[1]  CaseName=["damBreak3D_WCSPH-DBC"]  Data2D=[0]  Data2DPosy=[0]  H=[0.01]  KernelSize=[0.02]  B=[302709]  Gamma=[7]  Rhop0=[1000]  Dp=[0.005]  Gravity_x=[0]  Gravity_y=[0]  Gravity_z=[-9.81]  MassFluid=[0.000125]  MassBound=[0.000125]
XML-Vars (parameters): TimeMax=[1]  TimeOut=[1]
**Basic case configuration is loaded
**Special case configuration is loaded
Loading initial state of particles...
Loaded particles: 6751766
MapRealPos(border)=(-0.0105,-0.0105,-0.0105)-(3.2305,1.0105,1.0005)
MapRealPos(final)=(-0.0105,-0.0105,-0.0105)-(3.2305,1.0105,1.506)
**Initial state of particles is loaded
PosCellCode="13_10_9 (8192,1024,512)"
PosCellSize=0.020000  (1 x KernelSize)
**3D-Simulation parameters:
CaseName="damBreak3D_WCSPH-DBC"
RunName="damBreak3D_WCSPH-DBC"
Symmetry=False
SavePosDouble=False
SvExtraParts=""
SaveFtAce=False
SvTimers=True
Boundary="DBC"
StepAlgorithm="Verlet"
  VerletSteps=40
Kernel="Wendland"
  Wendland.awen=417780
  Wendland.bwen=-2.088910e+08
Viscosity="Artificial"
  Visco=0.02
  ViscoBoundFactor=0
DensityDiffusion="Molteni and Colagrossi 2009"
  DensityDiffusionValue=0.1
Shifting="None"
RigidAlgorithm="None"
FloatingCount=0
CaseNp=6751766
CaseNbound=1437471
CaseNfixed=1437471
CaseNmoving=0
CaseNfloat=0
CaseNfluid=5314295
PeriodicActive="None"
Dp=0.005
KernelH=0.010000  (CoefficientH=1.1547; H/Dp=2)
KernelSize=0.02
CteB=302708.6
Gamma=7
RhopZero=1000
Cs0=46.03216199028675
CFLnumber=0.2
DtIni=0.0002172394114052841
DtMin=1.086197073212018e-05
DtAllParticles=False
MassFluid=0.000125
MassBound=0.000125
TimeMax=1
TimePart=1
Gravity=(0,0,-9.81)
NpMinimum=1437471
RhopOut=True
RhopOutMin=700
RhopOutMax=1300
WrnPartsOut=True
CellMode="Full"
ScellDiv=1
MapCells=(163,52,76)
CellDomFixed=False
**Requested GPU memory for 6751894 particles: 927.2 MB (0 times).
DomCells=(163,52,76)
DomCellCode="1+12_9_10"
 
BlockSize calculation mode: Fixed.
  BsForcesBound=128 (48 regs)
  BsForcesFluid=128 (60 regs)
 
**CellDiv: Requested gpu memory for 7089482 particles: 54.7 MB.
**CellDiv: Requested gpu memory for 103350 cells (CellMode=Full): 1.6 MB.
 
RunMode="Pos-Cell - Single-GPU"
 
Particle summary:
  Fixed....: 1437471  id:(0-1437470)   MKs:2 (10-11)
  Moving...: 0
  Floating.: 0
  Fluid....: 5314295  id:(1437471-6751765)   MKs:1 (1)

Total particles: 6751766 (bound=1437471 (fx=1437471 mv=0 ft=0) fluid=5314295)
Total MK blocks: 3 (bound=2 (fx=2 mv=0 ft=0) fluid=1)
 
Allocated memory in CPU: 607716540 (579.56 MB)
Allocated memory in GPU: 1031310528 (983.53 MB)
Part_0000        6751766 particles successfully stored

[Initialising simulation (9rr47kmj)  24-06-2024 14:27:49]
PART       PartTime      TotalSteps    Steps    Time/Sec   Finish time        
=========  ============  ============  =======  =========  ===================
  Progress 2.88% in 30.0s. Estimated finish time: 24-06-2024 14:45:12
  Progress 5.55% in 60.0s. Estimated finish time: 24-06-2024 14:45:50
**CellDiv: Requested gpu memory for 111300 cells (CellMode=Full): 1.7 MB.
**CellDiv: Requested gpu memory for 119250 cells (CellMode=Full): 1.8 MB.
**CellDiv: Requested gpu memory for 128790 cells (CellMode=Full): 2.0 MB.
**CellDiv: Requested gpu memory for 138330 cells (CellMode=Full): 2.1 MB.
  Progress 24.32% in 300.0s. Estimated finish time: 24-06-2024 14:48:22
**CellDiv: Requested gpu memory for 149089 cells (CellMode=Full): 2.3 MB.
**CellDiv: Requested gpu memory for 159848 cells (CellMode=Full): 2.4 MB.
**CellDiv: Requested gpu memory for 170607 cells (CellMode=Full): 2.6 MB.
**CellDiv: Requested gpu memory for 182532 cells (CellMode=Full): 2.8 MB.
  Progress 43.87% in 600.0s. Estimated finish time: 24-06-2024 14:50:36
**CellDiv: Requested gpu memory for 195888 cells (CellMode=Full): 3.0 MB.
**CellDiv: Requested gpu memory for 213696 cells (CellMode=Full): 3.3 MB.
**CellDiv: Requested gpu memory for 230550 cells (CellMode=Full): 3.5 MB.
**CellDiv: Requested gpu memory for 249312 cells (CellMode=Full): 3.8 MB.
**CellDiv: Requested gpu memory for 268498 cells (CellMode=Full): 4.1 MB.
**CellDiv: Requested gpu memory for 288108 cells (CellMode=Full): 4.4 MB.
**CellDiv: Requested gpu memory for 308142 cells (CellMode=Full): 4.7 MB.
**CellDiv: Requested gpu memory for 328600 cells (CellMode=Full): 5.0 MB.
**CellDiv: Requested gpu memory for 349482 cells (CellMode=Full): 5.3 MB.
**CellDiv: Requested gpu memory for 370788 cells (CellMode=Full): 5.7 MB.
**CellDiv: Requested gpu memory for 392518 cells (CellMode=Full): 6.0 MB.
**CellDiv: Requested gpu memory for 414672 cells (CellMode=Full): 6.3 MB.
**CellDiv: Requested gpu memory for 434600 cells (CellMode=Full): 6.6 MB.
**CellDiv: Requested gpu memory for 460676 cells (CellMode=Full): 7.0 MB.
**CellDiv: Requested gpu memory for 486752 cells (CellMode=Full): 7.4 MB.
**CellDiv: Requested gpu memory for 512828 cells (CellMode=Full): 7.8 MB.
**CellDiv: Requested gpu memory for 538904 cells (CellMode=Full): 8.2 MB.
**CellDiv: Requested gpu memory for 564980 cells (CellMode=Full): 8.6 MB.
**CellDiv: Requested gpu memory for 591056 cells (CellMode=Full): 9.0 MB.
**CellDiv: Requested gpu memory for 617132 cells (CellMode=Full): 9.4 MB.
**CellDiv: Requested gpu memory for 643208 cells (CellMode=Full): 9.8 MB.
**CellDiv: Requested gpu memory for 669284 cells (CellMode=Full): 10.2 MB.
Part_0001      1.000032         35024    35024    1652.08  24-06-2024 14:55:21
  Particles out: 498  (total out: 498)  -  Current np: 6751268

[Simulation finished  24-06-2024 14:55:21]
Particles of simulation (initial): 6751766
DTs adjusted to DtMin............: 0
Excluded particles...............: 498
Total Runtime....................: 1653.372803 sec.
Simulation Runtime...............: 1652.128906 sec.
Runtime per physical second......: 1652.075562 sec.
Steps per second.................: 21.199314
Steps of simulation..............: 35024
PART files.......................: 2
Maximum number of particles......: 6751766
Maximum number of cells..........: 644176
CPU Memory.......................: 607716540 (579.56 MB)
GPU Memory.......................: 1040365472 (992.17 MB)
 
[GPU Timers]
VA-Init..........................: 1.243856 sec.
NL-Limits........................: 27.271906 sec.
NL-PreSort.......................: 0.110922 sec.
NL-RadixSort.....................: 33.574492 sec.
NL-CellBegin.....................: 2.393634 sec.
NL-SortData......................: 0.337329 sec.
NL-OutCheck......................: 31.711237 sec.
CF-PreForces.....................: 9.300820 sec.
CF-Forces........................: 1546.323884 sec.
SU-Shifting......................: 0 sec.
SU-ComputeStep...................: 0.256841 sec.
SU-Floating......................: 0 sec.
SU-Motion........................: 0 sec.
SU-Periodic......................: 0 sec.
SU-ResizeNp......................: 0 sec.
SU-DownData......................: 0.058891 sec.
SU-SavePart......................: 0.674234 sec.
SU-Chrono........................: 0 sec.
SU-Moorings......................: 0 sec.
SU-InOut.........................: 0 sec.
SU-Gauges........................: 0 sec.
 
[Output files]
- CfgInit_Domain.vtk...: Saves the limits of the case and the simulation domain limits.
- CfgInit_MapCells.vtk.: Saves the cell division of the simulation domain.
- Run.csv..............: One line CSV file with execution parameters and other simulation data.
- Run.out..............: Log file of the simulation.
- data/PartInfo.ibi4...: Binary file with execution information for each instant (input for PartInfo program).
- data/PartOut_???.obi4: Binary file with particles excluded during simulation (input for PartVtkOut program).
- data/Part_????.bi4...: Binary file with particle data in different instants.
- data/Part_Head.ibi4..: Binary file with basic information of simulation data.
 
[References]
- Official solver reference DualSPHysics v5.0: J.M. Dominguez, G. Fourtakas,
    C. Altomare, R.B. Canelas, A. Tafuni, O. Garcia-Feal, I. Martinez-Estevez,
    A. Mokos, R. Vacondio, A.J.C. Crespo, B.D. Rogers, P.K. Stansby, M. Gomez-Gesteira.
    2022. DualSPHysics: from fluid dynamics to multiphysics problems.
    Computational Particle Mechanics, 9:867-895. doi: https://doi.org/10.1007/s40571-021-00404-2

- Optimised CPU multi-core and GPU implementation (Dominguez et al., 2013  https://doi.org/10.1016/j.cpc.2012.10.015)
- Dynamic boundary conditions (Crespo et al., 2007  https://doi.org/10.3970/cmc.2007.005.173)
- Density diffusion Term: Molteni (Molteni and Colagrossi, 2009  https://doi.org/10.1016/j.cpc.2008.12.004)
- Viscosity: Artificial (Monaghan, 1992  https://doi.org/10.1146/annurev.aa.30.090192.002551)
- Viscosity: ViscoBoundFactor coefficient (Barreiro et al., 2014  https://doi.org/10.1371/journal.pone.0111031)
- Kernel: Quintic Wendland (Wendland, 1995  https://doi.org/10.1007/BF02123482)
- Time integration scheme: Verlet (Verlet, 1967  https://doi.org/10.1103/PhysRev.159.98)

Finished execution (code=0).

