

 <DUALSPHYSICS5> Copyright (c) 2023 by
 Dr Jose M. Dominguez Alonso, Dr Alejandro Crespo,
 Prof. Moncho Gomez Gesteira, Prof. Benedict Rogers,
 Dr Georgios Fourtakas, Prof. Peter Stansby,
 Dr Renato Vacondio, Dr Corrado Altomare, Dr Angelo Tafuni,
 Dr Orlando Garcia Feal, Ivan Martinez Estevez,
 Dr Joseph O'Connor, Dr Aaron English

 EPHYSLAB Environmental Physics Laboratory, Universidade de Vigo
 School of Mechanical, Aerospace and Civil Engineering, University of Manchester

 DualSPHysics is free software: you can redistribute it and/or
 modify it under the terms of the GNU Lesser General Public License
 as published by the Free Software Foundation, either version 2.1 of
 the License, or (at your option) any later version.

 DualSPHysics is distributed in the hope that it will be useful,
 but WITHOUT ANY WARRANTY; without even the implied warranty of
 MERCHANTABILITY or FITNESS FOR A PARTICULAR PURPOSE.  See the
 GNU Lesser General Public License for more details.

 You should have received a copy of the GNU Lesser General Public License
 along with DualSPHysics. If not, see <http://www.gnu.org/licenses/>.

 Free download source files and documentation from DualSPHysics website (http://dual.sphysics.org).
 Full list of developers and contributors is available at https://dual.sphysics.org/developers
 Properly cite the use of DualSPHysics (Dominguez et al., 2022) (https://dual.sphysics.org/references).


DualSPHysics5 v5.2.269 (03-04-2023)
====================================
[CUDA Capable device(s)]
  Detected 1 CUDA Capable device(s)
  CUDA Driver Version / Runtime Version: 12.4 / 11.7
 
Device 0: "NVIDIA A100-SXM4-40GB"
  CUDA Capability Major....: 8.0
  Global memory............: 40326 MBytes
  CUDA Cores...............: 6912 (108 Multiprocessors,  64 CUDA Cores/MP)
  GPU Max Clock rate.......: 1410 MHz (1.41 GHz)
  Memory Clock rate........: 1215 Mhz
  Memory Bus Width.........: 5120-bit
  L2 Cache Size............: 40960 KBytes
  Constant memory..........: 64 KBytes
  Shared memory per block..: 48 KBytes
  Registers per block......: 65536
  Maximum threads per MP...: 2048
  Maximum threads per block: 1024
  Concurrent copy and kernel execution....: Yes with 5 copy engine(s)
  Run time limit on kernels...............: No
  Integrated GPU sharing Host Memory......: No
  Support host page-locked memory mapping.: Yes
  Device has ECC support..................: Enabled
  Device supports Unified Addressing (UVA): Yes
  Device PCI (Domain / Bus / location)....: 0 / 49 / 0
  Device supports P2P and RDMA............: Yes
  Device supports P2P from/to GPUs........: 
 
[GPU Hardware]
Device default: 0 "NVIDIA A100-SXM4-40GB"
Compute capability: 8.0
Memory global: 40326 MB
Memory shared: 49152 Bytes
 
[Initialising JSphGpuSingle  24-06-2024 10:24:27]
ProgramFile=".../bin/linux/DualSPHysics5.2_linux64"
ExecutionDir=".../sph-benchmarks/damBreak3D/resoucres_dualsphysics"
XmlFile=".../resoucres_dualsphysics/damBreak3D_WCSPH-DBC_out/damBreak3D_WCSPH-DBC.xml"
OutputDir=".../damBreak3D/resoucres_dualsphysics/damBreak3D_WCSPH-DBC_out"
OutputDataDir=".../resoucres_dualsphysics/damBreak3D_WCSPH-DBC_out/data"
XML-App: GenCase v5.0.278 (24-04-2023)
XML-Vars (uservars + ctes): Boxpx1=[0.661]  Boxpx2=[0.815]  Boxpy1=[0.298]  Boxpy2=[0.705]  Boxpz2=[0.155]  DefBoxpx=[0.66]  DefBoxpy=[0.3]  DefBoxsx=[0.16]  DefBoxsy=[0.4]  DefBoxsz=[0.16]  DefTankpx=[0]  DefTankpy=[0]  DefTankpz=[0]  DefTanksx=[3.22]  DefTanksy=[1]  DefTanksz=[1]  Dpm=[0.0055]  MResId=[0]  Tankpx1=[0.001]  Tankpx2=[3.224]  Tankpy1=[0.001]  Tankpy2=[1.002]  Tankpz1=[0.001]  Tankpz2=[1.002]  CaseName=["damBreak3D_WCSPH-DBC"]  Data2D=[0]  Data2DPosy=[0]  H=[0.022]  KernelSize=[0.044]  B=[295982]  Gamma=[7]  Rhop0=[1000]  Dp=[0.011]  Gravity_x=[0]  Gravity_y=[0]  Gravity_z=[-9.81]  MassFluid=[0.001331]  MassBound=[0.001331]
XML-Vars (parameters): TimeMax=[1]  TimeOut=[1]
**Basic case configuration is loaded
**Special case configuration is loaded
Loading initial state of particles...
Loaded particles: 791130
MapRealPos(border)=(-0.0221,-0.0221,-0.0221)-(3.2471,1.0251,1.0031)
MapRealPos(final)=(-0.0221,-0.0221,-0.0221)-(3.2471,1.0251,1.5157)
**Initial state of particles is loaded
PosCellCode="13_10_9 (8192,1024,512)"
PosCellSize=0.044000  (1 x KernelSize)
**3D-Simulation parameters:
CaseName="damBreak3D_WCSPH-DBC"
RunName="damBreak3D_WCSPH-DBC"
Symmetry=False
SavePosDouble=False
SvExtraParts=""
SaveFtAce=False
SvTimers=True
Boundary="DBC"
StepAlgorithm="Verlet"
  VerletSteps=40
Kernel="Wendland"
  Wendland.awen=39235.54
  Wendland.bwen=-8917210
Viscosity="Artificial"
  Visco=0.02
  ViscoBoundFactor=0
DensityDiffusion="Molteni and Colagrossi 2009"
  DensityDiffusionValue=0.1
Shifting="None"
RigidAlgorithm="None"
FloatingCount=0
CaseNp=791130
CaseNbound=301620
CaseNfixed=301620
CaseNmoving=0
CaseNfloat=0
CaseNfluid=489510
PeriodicActive="None"
Dp=0.011
KernelH=0.022000  (CoefficientH=1.1547; H/Dp=2)
KernelSize=0.044
CteB=295981.7
Gamma=7
RhopZero=1000
Cs0=45.51782102924084
CFLnumber=0.2
DtIni=0.0004833271756716521
DtMin=2.416635914368941e-05
DtAllParticles=False
MassFluid=0.001331
MassBound=0.001331
TimeMax=1
TimePart=1
Gravity=(0,0,-9.81)
NpMinimum=301620
RhopOut=True
RhopOutMin=700
RhopOutMax=1300
WrnPartsOut=True
CellMode="Full"
ScellDiv=1
MapCells=(75,24,35)
CellDomFixed=False
**Requested GPU memory for 791258 particles: 108.7 MB (0 times).
DomCells=(75,24,35)
DomCellCode="1+12_9_10"
 
BlockSize calculation mode: Fixed.
  BsForcesBound=128 (48 regs)
  BsForcesFluid=128 (60 regs)
 
**CellDiv: Requested gpu memory for 830814 particles: 6.4 MB.
**CellDiv: Requested gpu memory for 11625 cells (CellMode=Full): 0.2 MB.
 
RunMode="Pos-Cell - Single-GPU"
 
Particle summary:
  Fixed....: 301620  id:(0-301619)   MKs:2 (10-11)
  Moving...: 0
  Floating.: 0
  Fluid....: 489510  id:(301620-791129)   MKs:1 (1)

Total particles: 791130 (bound=301620 (fx=301620 mv=0 ft=0) fluid=489510)
Total MK blocks: 3 (bound=2 (fx=2 mv=0 ft=0) fluid=1)
 
Allocated memory in CPU: 71259300 (67.96 MB)
Allocated memory in GPU: 120852944 (115.25 MB)
Part_0000        791130 particles successfully stored

[Initialising simulation (ecl1vi86)  24-06-2024 10:24:28]
PART       PartTime      TotalSteps    Steps    Time/Sec   Finish time        
=========  ============  ============  =======  =========  ===================
**CellDiv: Requested gpu memory for 13500 cells (CellMode=Full): 0.2 MB.
**CellDiv: Requested gpu memory for 15750 cells (CellMode=Full): 0.2 MB.
**CellDiv: Requested gpu memory for 18000 cells (CellMode=Full): 0.3 MB.
**CellDiv: Requested gpu memory for 20650 cells (CellMode=Full): 0.3 MB.
  Progress 45.33% in 30.0s. Estimated finish time: 24-06-2024 10:25:34
**CellDiv: Requested gpu memory for 23800 cells (CellMode=Full): 0.4 MB.
**CellDiv: Requested gpu memory for 27000 cells (CellMode=Full): 0.4 MB.
**CellDiv: Requested gpu memory for 31025 cells (CellMode=Full): 0.5 MB.
**CellDiv: Requested gpu memory for 36100 cells (CellMode=Full): 0.6 MB.
**CellDiv: Requested gpu memory for 41800 cells (CellMode=Full): 0.6 MB.
  Progress 75.63% in 60.0s. Estimated finish time: 24-06-2024 10:25:47
Part_0001      1.000037         15033    15033      78.51  24-06-2024 10:25:46

[Simulation finished  24-06-2024 10:25:46]
Particles of simulation (initial): 791130
DTs adjusted to DtMin............: 0
Excluded particles...............: 0
Total Runtime....................: 78.691460 sec.
Simulation Runtime...............: 78.514565 sec.
Runtime per physical second......: 78.511650 sec.
Steps per second.................: 191.467667
Steps of simulation..............: 15033
PART files.......................: 2
Maximum number of particles......: 791130
Maximum number of cells..........: 37800
CPU Memory.......................: 71259300 (67.96 MB)
GPU Memory.......................: 121335744 (115.71 MB)
 
[GPU Timers]
VA-Init..........................: 0.176883 sec.
NL-Limits........................: 1.247599 sec.
NL-PreSort.......................: 0.042885 sec.
NL-RadixSort.....................: 6.087260 sec.
NL-CellBegin.....................: 0.545076 sec.
NL-SortData......................: 0.132649 sec.
NL-OutCheck......................: 1.678797 sec.
CF-PreForces.....................: 0.942931 sec.
CF-Forces........................: 67.601683 sec.
SU-Shifting......................: 0 sec.
SU-ComputeStep...................: 0.089378 sec.
SU-Floating......................: 0 sec.
SU-Motion........................: 0 sec.
SU-Periodic......................: 0 sec.
SU-ResizeNp......................: 0 sec.
SU-DownData......................: 0.010826 sec.
SU-SavePart......................: 0.098628 sec.
SU-Chrono........................: 0 sec.
SU-Moorings......................: 0 sec.
SU-InOut.........................: 0 sec.
SU-Gauges........................: 0 sec.
 
[Output files]
- CfgInit_Domain.vtk...: Saves the limits of the case and the simulation domain limits.
- CfgInit_MapCells.vtk.: Saves the cell division of the simulation domain.
- Run.csv..............: One line CSV file with execution parameters and other simulation data.
- Run.out..............: Log file of the simulation.
- data/PartInfo.ibi4...: Binary file with execution information for each instant (input for PartInfo program).
- data/PartOut_???.obi4: Binary file with particles excluded during simulation (input for PartVtkOut program).
- data/Part_????.bi4...: Binary file with particle data in different instants.
- data/Part_Head.ibi4..: Binary file with basic information of simulation data.
 
[References]
- Official solver reference DualSPHysics v5.0: J.M. Dominguez, G. Fourtakas,
    C. Altomare, R.B. Canelas, A. Tafuni, O. Garcia-Feal, I. Martinez-Estevez,
    A. Mokos, R. Vacondio, A.J.C. Crespo, B.D. Rogers, P.K. Stansby, M. Gomez-Gesteira.
    2022. DualSPHysics: from fluid dynamics to multiphysics problems.
    Computational Particle Mechanics, 9:867-895. doi: https://doi.org/10.1007/s40571-021-00404-2

- Optimised CPU multi-core and GPU implementation (Dominguez et al., 2013  https://doi.org/10.1016/j.cpc.2012.10.015)
- Dynamic boundary conditions (Crespo et al., 2007  https://doi.org/10.3970/cmc.2007.005.173)
- Density diffusion Term: Molteni (Molteni and Colagrossi, 2009  https://doi.org/10.1016/j.cpc.2008.12.004)
- Viscosity: Artificial (Monaghan, 1992  https://doi.org/10.1146/annurev.aa.30.090192.002551)
- Viscosity: ViscoBoundFactor coefficient (Barreiro et al., 2014  https://doi.org/10.1371/journal.pone.0111031)
- Kernel: Quintic Wendland (Wendland, 1995  https://doi.org/10.1007/BF02123482)
- Time integration scheme: Verlet (Verlet, 1967  https://doi.org/10.1103/PhysRev.159.98)

Finished execution (code=0).

