

 <DUALSPHYSICS5> Copyright (c) 2023 by
 Dr Jose M. Dominguez Alonso, Dr Alejandro Crespo,
 Prof. Moncho Gomez Gesteira, Prof. Benedict Rogers,
 Dr Georgios Fourtakas, Prof. Peter Stansby,
 Dr Renato Vacondio, Dr Corrado Altomare, Dr Angelo Tafuni,
 Dr Orlando Garcia Feal, Ivan Martinez Estevez,
 Dr Joseph O'Connor, Dr Aaron English

 EPHYSLAB Environmental Physics Laboratory, Universidade de Vigo
 School of Mechanical, Aerospace and Civil Engineering, University of Manchester

 DualSPHysics is free software: you can redistribute it and/or
 modify it under the terms of the GNU Lesser General Public License
 as published by the Free Software Foundation, either version 2.1 of
 the License, or (at your option) any later version.

 DualSPHysics is distributed in the hope that it will be useful,
 but WITHOUT ANY WARRANTY; without even the implied warranty of
 MERCHANTABILITY or FITNESS FOR A PARTICULAR PURPOSE.  See the
 GNU Lesser General Public License for more details.

 You should have received a copy of the GNU Lesser General Public License
 along with DualSPHysics. If not, see <http://www.gnu.org/licenses/>.

 Free download source files and documentation from DualSPHysics website (http://dual.sphysics.org).
 Full list of developers and contributors is available at https://dual.sphysics.org/developers
 Properly cite the use of DualSPHysics (Dominguez et al., 2022) (https://dual.sphysics.org/references).


DualSPHysics5 v5.2.269 (03-04-2023)
====================================
[CUDA Capable device(s)]
  Detected 1 CUDA Capable device(s)
  CUDA Driver Version / Runtime Version: 12.4 / 11.7
 
Device 0: "NVIDIA A100-SXM4-40GB"
  CUDA Capability Major....: 8.0
  Global memory............: 40326 MBytes
  CUDA Cores...............: 6912 (108 Multiprocessors,  64 CUDA Cores/MP)
  GPU Max Clock rate.......: 1410 MHz (1.41 GHz)
  Memory Clock rate........: 1215 Mhz
  Memory Bus Width.........: 5120-bit
  L2 Cache Size............: 40960 KBytes
  Constant memory..........: 64 KBytes
  Shared memory per block..: 48 KBytes
  Registers per block......: 65536
  Maximum threads per MP...: 2048
  Maximum threads per block: 1024
  Concurrent copy and kernel execution....: Yes with 5 copy engine(s)
  Run time limit on kernels...............: No
  Integrated GPU sharing Host Memory......: No
  Support host page-locked memory mapping.: Yes
  Device has ECC support..................: Enabled
  Device supports Unified Addressing (UVA): Yes
  Device PCI (Domain / Bus / location)....: 0 / 49 / 0
  Device supports P2P and RDMA............: Yes
  Device supports P2P from/to GPUs........: 
 
[GPU Hardware]
Device default: 0 "NVIDIA A100-SXM4-40GB"
Compute capability: 8.0
Memory global: 40326 MB
Memory shared: 49152 Bytes
 
[Initialising JSphGpuSingle  24-06-2024 10:17:58]
ProgramFile=".../bin/linux/DualSPHysics5.2_linux64"
ExecutionDir=".../sph-benchmarks/damBreak3D/resoucres_dualsphysics"
XmlFile=".../resoucres_dualsphysics/damBreak3D_WCSPH-DBC_out/damBreak3D_WCSPH-DBC.xml"
OutputDir=".../damBreak3D/resoucres_dualsphysics/damBreak3D_WCSPH-DBC_out"
OutputDataDir=".../resoucres_dualsphysics/damBreak3D_WCSPH-DBC_out/data"
XML-App: GenCase v5.0.278 (24-04-2023)
XML-Vars (uservars + ctes): Boxpx1=[0.656]  Boxpx2=[0.824]  Boxpy1=[0.296]  Boxpy2=[0.704]  Boxpz2=[0.164]  DefBoxpx=[0.66]  DefBoxpy=[0.3]  DefBoxsx=[0.16]  DefBoxsy=[0.4]  DefBoxsz=[0.16]  DefTankpx=[0]  DefTankpy=[0]  DefTankpz=[0]  DefTanksx=[3.22]  DefTanksy=[1]  DefTanksz=[1]  Dpm=[0.006]  MResId=[0]  Tankpx1=[-0.004]  Tankpx2=[3.224]  Tankpy1=[-0.004]  Tankpy2=[1.004]  Tankpz1=[-0.004]  Tankpz2=[1.004]  CaseName=["damBreak3D_WCSPH-DBC"]  Data2D=[0]  Data2DPosy=[0]  H=[0.024]  KernelSize=[0.048]  B=[295982]  Gamma=[7]  Rhop0=[1000]  Dp=[0.012]  Gravity_x=[0]  Gravity_y=[0]  Gravity_z=[-9.81]  MassFluid=[0.001728]  MassBound=[0.001728]
XML-Vars (parameters): TimeMax=[1]  TimeOut=[1]
**Basic case configuration is loaded
**Special case configuration is loaded
Loading initial state of particles...
Loaded particles: 637752
MapRealPos(border)=(-0.0292,-0.0292,-0.0292)-(3.2492,1.0292,1.0052)
MapRealPos(final)=(-0.0292,-0.0292,-0.0292)-(3.2492,1.0292,1.5224)
**Initial state of particles is loaded
PosCellCode="13_10_9 (8192,1024,512)"
PosCellSize=0.048000  (1 x KernelSize)
**3D-Simulation parameters:
CaseName="damBreak3D_WCSPH-DBC"
RunName="damBreak3D_WCSPH-DBC"
Symmetry=False
SavePosDouble=False
SvExtraParts=""
SaveFtAce=False
SvTimers=True
Boundary="DBC"
StepAlgorithm="Verlet"
  VerletSteps=40
Kernel="Wendland"
  Wendland.awen=30221.35
  Wendland.bwen=-6296146
Viscosity="Artificial"
  Visco=0.02
  ViscoBoundFactor=0
DensityDiffusion="Molteni and Colagrossi 2009"
  DensityDiffusionValue=0.1
Shifting="None"
RigidAlgorithm="None"
FloatingCount=0
CaseNp=637752
CaseNbound=256782
CaseNfixed=256782
CaseNmoving=0
CaseNfloat=0
CaseNfluid=380970
PeriodicActive="None"
Dp=0.012
KernelH=0.024000  (CoefficientH=1.1547; H/Dp=2)
KernelSize=0.048
CteB=295981.7
Gamma=7
RhopZero=1000
Cs0=45.51782102924084
CFLnumber=0.2
DtIni=0.0005272660172638439
DtMin=2.636330125603599e-05
DtAllParticles=False
MassFluid=0.001728
MassBound=0.001728
TimeMax=1
TimePart=1
Gravity=(0,0,-9.81)
NpMinimum=256782
RhopOut=True
RhopOutMin=700
RhopOutMax=1300
WrnPartsOut=True
CellMode="Full"
ScellDiv=1
MapCells=(69,23,33)
CellDomFixed=False
**Requested GPU memory for 637880 particles: 87.6 MB (0 times).
DomCells=(69,23,33)
DomCellCode="1+12_9_10"
 
BlockSize calculation mode: Fixed.
  BsForcesBound=128 (48 regs)
  BsForcesFluid=128 (60 regs)
 
**CellDiv: Requested gpu memory for 669767 particles: 5.2 MB.
**CellDiv: Requested gpu memory for 9744 cells (CellMode=Full): 0.1 MB.
 
RunMode="Pos-Cell - Single-GPU"
 
Particle summary:
  Fixed....: 256782  id:(0-256781)   MKs:2 (10-11)
  Moving...: 0
  Floating.: 0
  Fluid....: 380970  id:(256782-637751)   MKs:1 (1)

Total particles: 637752 (bound=256782 (fx=256782 mv=0 ft=0) fluid=380970)
Total MK blocks: 3 (bound=2 (fx=2 mv=0 ft=0) fluid=1)
 
Allocated memory in CPU: 57455280 (54.79 MB)
Allocated memory in GPU: 97432896 (92.92 MB)
Part_0000        637752 particles successfully stored

[Initialising simulation (nrkpmwfm)  24-06-2024 10:17:58]
PART       PartTime      TotalSteps    Steps    Time/Sec   Finish time        
=========  ============  ============  =======  =========  ===================
**CellDiv: Requested gpu memory for 11424 cells (CellMode=Full): 0.2 MB.
**CellDiv: Requested gpu memory for 13440 cells (CellMode=Full): 0.2 MB.
**CellDiv: Requested gpu memory for 15456 cells (CellMode=Full): 0.2 MB.
**CellDiv: Requested gpu memory for 18096 cells (CellMode=Full): 0.3 MB.
  Progress 54.57% in 30.0s. Estimated finish time: 24-06-2024 10:18:52
**CellDiv: Requested gpu memory for 21840 cells (CellMode=Full): 0.3 MB.
**CellDiv: Requested gpu memory for 24840 cells (CellMode=Full): 0.4 MB.
**CellDiv: Requested gpu memory for 28560 cells (CellMode=Full): 0.4 MB.
Part_0001      1.000013         13796    13796      58.89  24-06-2024 10:18:57

[Simulation finished  24-06-2024 10:18:57]
Particles of simulation (initial): 637752
DTs adjusted to DtMin............: 0
Excluded particles...............: 0
Total Runtime....................: 59.072536 sec.
Simulation Runtime...............: 58.887272 sec.
Runtime per physical second......: 58.886505 sec.
Steps per second.................: 234.278137
Steps of simulation..............: 13796
PART files.......................: 2
Maximum number of particles......: 637752
Maximum number of cells..........: 26979
CPU Memory.......................: 57455280 (54.79 MB)
GPU Memory.......................: 97733952 (93.21 MB)
 
[GPU Timers]
VA-Init..........................: 0.185256 sec.
NL-Limits........................: 0.914530 sec.
NL-PreSort.......................: 0.038972 sec.
NL-RadixSort.....................: 5.473654 sec.
NL-CellBegin.....................: 0.493588 sec.
NL-SortData......................: 0.120965 sec.
NL-OutCheck......................: 1.268155 sec.
CF-PreForces.....................: 0.852789 sec.
CF-Forces........................: 49.519563 sec.
SU-Shifting......................: 0 sec.
SU-ComputeStep...................: 0.082706 sec.
SU-Floating......................: 0 sec.
SU-Motion........................: 0 sec.
SU-Periodic......................: 0 sec.
SU-ResizeNp......................: 0 sec.
SU-DownData......................: 0.009596 sec.
SU-SavePart......................: 0.079960 sec.
SU-Chrono........................: 0 sec.
SU-Moorings......................: 0 sec.
SU-InOut.........................: 0 sec.
SU-Gauges........................: 0.000001 sec.
 
[Output files]
- CfgInit_Domain.vtk...: Saves the limits of the case and the simulation domain limits.
- CfgInit_MapCells.vtk.: Saves the cell division of the simulation domain.
- Run.csv..............: One line CSV file with execution parameters and other simulation data.
- Run.out..............: Log file of the simulation.
- data/PartInfo.ibi4...: Binary file with execution information for each instant (input for PartInfo program).
- data/PartOut_???.obi4: Binary file with particles excluded during simulation (input for PartVtkOut program).
- data/Part_????.bi4...: Binary file with particle data in different instants.
- data/Part_Head.ibi4..: Binary file with basic information of simulation data.
 
[References]
- Official solver reference DualSPHysics v5.0: J.M. Dominguez, G. Fourtakas,
    C. Altomare, R.B. Canelas, A. Tafuni, O. Garcia-Feal, I. Martinez-Estevez,
    A. Mokos, R. Vacondio, A.J.C. Crespo, B.D. Rogers, P.K. Stansby, M. Gomez-Gesteira.
    2022. DualSPHysics: from fluid dynamics to multiphysics problems.
    Computational Particle Mechanics, 9:867-895. doi: https://doi.org/10.1007/s40571-021-00404-2

- Optimised CPU multi-core and GPU implementation (Dominguez et al., 2013  https://doi.org/10.1016/j.cpc.2012.10.015)
- Dynamic boundary conditions (Crespo et al., 2007  https://doi.org/10.3970/cmc.2007.005.173)
- Density diffusion Term: Molteni (Molteni and Colagrossi, 2009  https://doi.org/10.1016/j.cpc.2008.12.004)
- Viscosity: Artificial (Monaghan, 1992  https://doi.org/10.1146/annurev.aa.30.090192.002551)
- Viscosity: ViscoBoundFactor coefficient (Barreiro et al., 2014  https://doi.org/10.1371/journal.pone.0111031)
- Kernel: Quintic Wendland (Wendland, 1995  https://doi.org/10.1007/BF02123482)
- Time integration scheme: Verlet (Verlet, 1967  https://doi.org/10.1103/PhysRev.159.98)

Finished execution (code=0).

