Running TNL-SPH solver with resolution 0.02.
-- Trying to find DCMTK expecting DCMTKConfig.cmake
-- Trying to find DCMTK expecting DCMTKConfig.cmake - failed
-- Trying to find DCMTK relying on FindDCMTK.cmake
-- Please set DCMTK_DIR and re-run configure (missing: DCMTK_config_INCLUDE_DIR DCMTK_dcmdata_INCLUDE_DIR DCMTK_dcmimage_INCLUDE_DIR DCMTK_dcmimgle_INCLUDE_DIR DCMTK_dcmjpeg_INCLUDE_DIR DCMTK_dcmjpls_INCLUDE_DIR DCMTK_dcmnet_INCLUDE_DIR DCMTK_dcmpstat_INCLUDE_DIR DCMTK_dcmqrdb_INCLUDE_DIR DCMTK_dcmsign_INCLUDE_DIR DCMTK_dcmsr_INCLUDE_DIR DCMTK_dcmtls_INCLUDE_DIR DCMTK_ofstd_INCLUDE_DIR DCMTK_oflog_INCLUDE_DIR DCMTK_LIBRARIES) 
-- Gunrock not found.
-- Compiling without Tensor Core support.
-- Could NOT find Hypre (missing: HYPRE_LIBRARIES HYPRE_INCLUDE_DIRS) (found version "0.0.0")
-- Could NOT find Hypre (missing: HYPRE_LIBRARIES HYPRE_INCLUDE_DIRS) (found version "0.0.0")
-- Could NOT find Doxygen (missing: DOXYGEN_EXECUTABLE) 
-- GenCase download is disabled (ENABLE_GENCASE_DOWNLOAD is FALSE)
-- GenCase_linux64 already exists at /storage/praha1/home/haladto1/sph-benchmarks2/damBreak3D/resources_tnl-sph/build/_deps/tnl_sph-src/src/tools/3rdparty/GenCase_linux64, skipping download
-- Configuring done (11.9s)
-- Generating done (57.9s)
-- Build files have been written to: /storage/praha1/home/haladto1/sph-benchmarks2/damBreak3D/resources_tnl-sph/build
Built target damBreak3D_WCSPH-DBC_benchmark
Initial particle spacing: 0.02


 <GENCASE>  Copyright (c) 2025 by Dr Jose M. Dominguez
 All rights reserved.

 GenCase is a free tool for DualSPHysics simulations.
 DualSPHysics project is an international collaboration between
 University of Vigo (Spain) and University of Manchester (UK).

 Redistribution and use in binary form, without modification, are
 permitted provided that the following conditions are met:
 * Redistributions in binary form must reproduce the above copyright
   notice, this list of conditions and the following disclaimer in the
   documentation and/or other materials provided with the distribution.
 * Redistributions or modifications of source code are not permitted 
   unless expressly authorised, and must retain the above copyright 
   notice, this list of conditions and the following disclaimer.
 * Neither the name of the GenCase nor the names of its contributors
   may be used to endorse or promote products derived from this software
   without specific prior written permission.

 THIS SOFTWARE IS PROVIDED BY THE COPYRIGHT HOLDERS AND CONTRIBUTORS "AS IS"
 AND ANY EXPRESS OR IMPLIED WARRANTIES, INCLUDING, BUT NOT LIMITED TO, THE
 IMPLIED WARRANTIES OF MERCHANTABILITY AND FITNESS FOR A PARTICULAR PURPOSE
 ARE DISCLAIMED. IN NO EVENT SHALL THE COPYRIGHT OWNER BE LIABLE FOR ANY
 DIRECT, INDIRECT, INCIDENTAL, SPECIAL, EXEMPLARY, OR CONSEQUENTIAL DAMAGES
 (INCLUDING, BUT NOT LIMITED TO, PROCUREMENT OF SUBSTITUTE GOODS OR SERVICES;
 LOSS OF USE, DATA, OR PROFITS; OR BUSINESS INTERRUPTION) HOWEVER CAUSED AND
 ON ANY THEORY OF LIABILITY, WHETHER IN CONTRACT, STRICT LIABILITY, OR TORT
 (INCLUDING NEGLIGENCE OR OTHERWISE) ARISING IN ANY WAY OUT OF THE USE OF
 THIS SOFTWARE, EVEN IF ADVISED OF THE POSSIBILITY OF SUCH DAMAGE.


GenCase v5.4.354.01 (07-04-2025)
=================================
OmpThreads: 1

[LoadXMLInit]
List: GeometryForNormals
List: MAIN

Total operations: 38
[LoadXMLInit-End  time:0.009s]

[Draw]
List of available variables: Gravity_x=[0]  Gravity_y=[0]  Gravity_z=[-9.81]  Rhop0=[1000]  VResId=[0]  Dp=[0.02]  PosMin_x=[-1]  PosMin_y=[-1]  PosMin_z=[-1]  PosMax_x=[3.3]  PosMax_y=[1.1]  PosMax_z=[2.1]  CaseName=["damBreak3D_WCSPH-DBC"]  Data2D=[0]  Data2DPosy=[0]  H=[0.04]  MassBound=[0.008]  MassFluid=[0.008]

Mk size: 1 bytes
Case limits: (-1,-1,-1) - (3.3,1.1,2.1)
Distance between points (Dp): 0.02
Case domain: (0,0,0)-(214,104,154)
Domain points: 215 x 105 x 155 = 3,499,125
Case parts: 1 x 155z
Memory: 0.00 GiB  3.34 MiB  (3,499,125)

> MAIN
>> GeometryForNormals
FileShapes> hdp_Actual.vtk  shapes:22  points:44   (time:0.010s)
<< GeometryForNormals (8+6+1)
FileDbgDomains> damBreak3D_WCSPH-DBC_out/damBreak3D_WCSPH-DBC_dbg-fillbox.vtk  domains:1
FileShapes> _Actual.vtk  shapes:66  points:132   (time:0.003s)
<MAIN (Operations= 25+13+2 = 40)

Triangles: 176 (0 ignored)
[Draw-End  time:0.031s]

[LoadsXMLConfig]
Execution parameters.
Initials configuration.
Floating bodies configuration.
Properties configuration.
Predefined motion configuration.
[LoadsXMLConfig-End  time:0.002s]

[PreparePoints]
Computing Vtk-Cells data...  (time:0.072s)
BitSizeTot: 23 (2 + 8+6+7)
Points loaded: 263,022
Sorting points by Z...
Sorting points by Mk...
Computing Grid-points...  (time:0.018s)

List of Points:
Points -> Fixed-Boundary particles:
  block[  0] (mk: 10): 181923  -->  181923
  block[  1] (mk: 11):   1719  -->    1719
Points -> Fluid particles:
  block[  2] (mk:  1):  79380  -->   79380

Particle summary:
  Fixed....: 183,642  id:(0-183641)   MKs:2 (10-11)
  Moving...: 0
  Floating.: 0
  Fluid....: 79,380  id:(183642-263021)   MKs:1 (1)

Total particles: 263,022 (bound=183642 (fx=183642 mv=0 ft=0) fluid=79380)
Total MK blocks: 3 (bound=2 (fx=2 mv=0 ft=0) fluid=1)

Maximum depth: 0.52 (automatic)
Speed of system: 2.25858 (automatic)
Speed of sound: max(coefsound*speedsystem,10*sqrt(g*depth))
Speed of sound: 45.1717 max(45.1717,22.5858)
Speed of sound: 45.1717 (automatic)

Coefh:1.154701 (hdp:2.000000)

[PreparePoints-End  time:0.093s]

[SaveCase3D]
damBreak3D_WCSPH-DBC_out/damBreak3D_WCSPH-DBC_MkCells.vtk  (time:0.003s, shapes:42, points:168)
damBreak3D_WCSPH-DBC_out/damBreak3D_WCSPH-DBC.bi4<double>  (time:0.115s)
damBreak3D_WCSPH-DBC_out/damBreak3D_WCSPH-DBC_Bound.vtk  (time: 0.058s)
damBreak3D_WCSPH-DBC_out/damBreak3D_WCSPH-DBC_Fluid.vtk  (time: 0.041s)
damBreak3D_WCSPH-DBC_out/damBreak3D_WCSPH-DBC.xml  (time:0.006s)
 
Computing normals...

*** WARNING: Current <normals> configuration is deprecated (damBreak3D_WCSPH-DBC_Def.xml(row:149)).

  Evaluating 183,642 particles with 22 shapes (distance 2x H = 0.08).
  Time for computing 212,386 normals: 0.049s   Max.Memory: 6.99 MiB
  Non-zero particle normals: 183,642/183,642    Normals size range: (0.010000 - 0.086603).
  Final zero normals: 0/183,642 (0.0%)   Maximum normal: 0.0866026 (2.17 x h)

Save files time: 0.633s

Particle limits:
  X range: -0.04 to 3.26 [m]
  Y range: -0.04 to 1.04 [m]
  Z range: -0.04 to 2.04 [m]

[SaveCase3D-End  time:0.644s]

[WARNINGS]
1. Current <normals> configuration is deprecated (damBreak3D_WCSPH-DBC_Def.xml(row:149)).

Time of execution: 0.818 sec. (1 threads)

Finished execution (code=0).

Geometry for resolutin with initial particle spacing 0.02 was successfuly generated.
{'dp': 0.02, 'h_coef': 2, 'density': 1000, 'speed_of_sound': 45.17, 'cfl': 0.15, 'particle_mass': 0.008000000000000002, 'smoothing_length': 0.04, 'search_radius': 0.08, 'time_step': 0.00013283152534868274, 'fluid_n': 79380, 'boundary_n': 183642, 'domain_origin_x': np.float32(-0.1206), 'domain_origin_y': np.float32(-0.1206), 'domain_origin_z': np.float32(-0.1206), 'domain_end_x': np.float32(3.26), 'domain_end_y': np.float32(1.04), 'domain_end_z': np.float32(2.04), 'domain_size_x': np.float32(3.4773), 'domain_size_y': np.float32(1.2462), 'domain_size_z': np.float32(3.3005998)}
+--------------------------------------------------------------------------------------------------+
|                                                                                                  |
|                                   SPH simulation initialization.                                 |
|                                                                                                  |
+--------------------------------------------------------------------------------------------------+
| Reading fluid particles:                                               sources/dambreak_fluid.vtk |
| Reading boundary particles:                                         sources/dambreak_boundary.vtk |
+--------------------------------------------------------------------------------------------------+
+--------------------------------------------------------------------------------------------------+
|                                                                                                  |
|                              SPH simulation successfully initialized.                            |
|                                                                                                  |
+--------------------------------------------------------------------------------------------------+
+--------------------------------------------------------------------------------------------------+
|                                                                                                  |
|                                   SPH simulation configuration.                                  |
|                                                                                                  |
+--------------------------------------------------------------------------------------------------+
| Case name:                                                                   damBreak3D_WCSPH-DBC |
+--------------------------------------------------------------------------------------------------+
| MPI processes:                                                                                  1 |
| Device type:                                                                    TNL::Devices::GPU |
| Particle system type:                                    TNL::ParticleSystem::ParticlesLinkedList |
| SPH model:                                                                    TNL::SPH::WCSPH_DBC |
| Verbose:                                                                            with-snapshot |
| Output directory:                                                                         results |
| Particles format                                                                             auto |
+--------------------------------------------------------------------------------------------------+
|                                                                                                  |
|                         TNL::SPH::WCSPH_DBC (delta-WCSPH) model parameters                       |
|                                                                                                  |
+--------------------------------------------------------------------------------------------------+
| Resolution parameters                                                                             |
|  Initial particle distance (dp):                                                             0.02 |
|  Smoothing length (h):                                                                       0.04 |
|  Spatial resolution (h/dp):                                                                     2 |
|  Particle mass (mass):                                                                      0.008 |
| Model parameters                                                                                  |
|  Diffusive term:                                                   TNL::SPH::MolteniDiffusiveTerm |
|  Diffusive term coefficient (delta):                                                          0.1 |
|  Viscous term:                                                      TNL::SPH::ArtificialViscosity |
|  Artificial vicosity coefficient (alpha):                                                    0.02 |
|  Equation of state:                                           TNL::SPH::TaitWeaklyCompressibleEOS |
| Coefficient of EOS (coefB):                                                                291476 |
|  Speed of sound (speedOfSound):                                                             45.17 |
|  Referentail density (rho0):                                                                 1000 |
| Boundary condition type                                                  TNL::SPH::WCSPH_DBC::DBC |
| Time integration                                                                                  |
|  Integration scheme:                                            TNL::SPH::WCSPH_DBC::VerletScheme |
|  Time stepping:                                                        TNL::SPH::ConstantTimeStep |
|  Initial time step (dtInit):                                                           0.00013283 |
| External bulk force:                                                              [ 0, 0, -9.81 ] |
+--------------------------------------------------------------------------------------------------+
|                                                                                                  |
|                                     Fluid object information.                                    |
|                                                                                                  |
+--------------------------------------------------------------------------------------------------+
| Particle system parameters:                                                                       |
| Number of particles:                                                                        79380 |
| Number of allocated particles:                                                              79380 |
| Search radius:                                                                               0.08 |
| Grid origin:                                                        [ -0.1206, -0.1206, -0.1206 ] |
| Grid origin global coordinates:                                                       [ 0, 0, 0 ] |
| Grid origin global coordinates with overlap:                                          [ 0, 0, 0 ] |
| Grid referential origin:                                            [ -0.1206, -0.1206, -0.1206 ] |
| Grid dimensions:                                                                   [ 45, 18, 43 ] |
| Domain grid overlap width:                                                                      0 |
| Grid origin with overlap:                                           [ -0.1206, -0.1206, -0.1206 ] |
| Grid dimension with overlap:                                                       [ 45, 18, 43 ] |
+--------------------------------------------------------------------------------------------------+
|                                                                                                  |
|                                    Boundary object information:                                  |
|                                                                                                  |
+--------------------------------------------------------------------------------------------------+
| Particle system parameters:                                                                       |
| Number of particles:                                                                       183642 |
| Number of allocated particles:                                                             183642 |
| Search radius:                                                                               0.08 |
| Grid origin:                                                        [ -0.1206, -0.1206, -0.1206 ] |
| Grid origin global coordinates:                                                       [ 0, 0, 0 ] |
| Grid origin global coordinates with overlap:                                          [ 0, 0, 0 ] |
| Grid referential origin:                                            [ -0.1206, -0.1206, -0.1206 ] |
| Grid dimensions:                                                                   [ 45, 18, 43 ] |
| Domain grid overlap width:                                                                      0 |
| Grid origin with overlap:                                           [ -0.1206, -0.1206, -0.1206 ] |
| Grid dimension with overlap:                                                       [ 45, 18, 43 ] |
+--------------------------------------------------------------------------------------------------+
|                                                                                                  |
|                                        System information.                                       |
|                                                                                                  |
+--------------------------------------------------------------------------------------------------+
| Host name:                                                                     fau1.natur.cuni.cz |
| System:                                                                                     Linux |
| Release:                                                                           6.1.0-41-amd64 |
| Architecture:                                                                               AMD64 |
| TNL compiler:                                                               Nvidia NVCC (12.6.68) |
| CPU info                                                                                          |
|  Model name:                                                      AMD EPYC 7452 32-Core Processor |
|  Cores:                                                                                        32 |
|  Threads per core:                                                                              1 |
|  Max clock rate (in MHz):                                                                    2350 |
|  Cache (L1d, L1i, L2, L3):                                                     32, 32, 512, 16384 |
| GPU info                                                                                          |
|  Name                                                                             Quadro RTX 5000 |
|  Architecture                                                                                 7.5 |
|  GPU cores                                                                                   3072 |
|  Global memory (in GB)                                                                     16.702 |
|  ECC enabled                                                                                    0 |
+--------------------------------------------------------------------------------------------------+
| Started at:                                                             Sat Jan 24 2026, 18:54:57 |
+--------------------------------------------------------------------------------------------------+
+--------------------------------------------------------------------------------------------------+
| Simulation time: 0.000000 s, simulation step: 0                                                   |
| Current time:                                                           Sat Jan 24 2026, 18:54:57 |
| Number of fluid particles:                                                                  79380 |
| Number of allocated fluid particles:                                                        79380 |
| Number of boundary particles:                                                              183642 |
| Number of allocated fluid particles:                                                       183642 |
+--------------------------------------------------------------------------------------------------+
| Saved:                                                       results/fluid_0.000000_particles.vtk |
| Saved:                                                    results/boundary_0.000000_particles.vtk |
| Saved:                                                                  results/grid_0.000000.vtk |
+--------------------------------------------------------------------------------------------------+
|                                                                                                  |
|                               SPH simulation successfully finished.                              |
|                                                                                                  |
+--------------------------------------------------------------------------------------------------+
| Ended at:                                                               Sat Jan 24 2026, 18:55:42 |
+--------------------------------------------------------------------------------------------------+
|                                                                                                  |
|                                          Computation time                                        |
|                                                                                                  |
+--------------------------------------------------------------------------------------------------+
| integrate                                                                                 1.73927 |
| integrate-average                                                                     5.77467e-05 |
| integrate-percentage                                                                      3.87176 |
+--------------------------------------------------------------------------------------------------+
| interact                                                                                  39.1081 |
| interact-average                                                                       0.00129845 |
| interact-percentage                                                                       87.0578 |
+--------------------------------------------------------------------------------------------------+
| search                                                                                    4.07463 |
| search-average                                                                        0.000135284 |
| search-percentage                                                                         9.07045 |
+--------------------------------------------------------------------------------------------------+
| search_cellIndices                                                                              0 |
| search_cellIndices-average                                                                      0 |
| search_cellIndices-percentage                                                                   0 |
+--------------------------------------------------------------------------------------------------+
| search_reset                                                                                    0 |
| search_reset-average                                                                            0 |
| search_reset-percentage                                                                         0 |
+--------------------------------------------------------------------------------------------------+
| search_sort                                                                                     0 |
| search_sort-average                                                                             0 |
| search_sort-percentage                                                                          0 |
+--------------------------------------------------------------------------------------------------+
| search_toCells                                                                                  0 |
| search_toCells-average                                                                          0 |
| search_toCells-percentage                                                                       0 |
+--------------------------------------------------------------------------------------------------+
| Total time:                                                                                44.922 |
+--------------------------------------------------------------------------------------------------+
Running TNL-SPH solver with resolution 0.015.
-- Trying to find DCMTK expecting DCMTKConfig.cmake
-- Trying to find DCMTK expecting DCMTKConfig.cmake - failed
-- Trying to find DCMTK relying on FindDCMTK.cmake
-- Please set DCMTK_DIR and re-run configure (missing: DCMTK_config_INCLUDE_DIR DCMTK_dcmdata_INCLUDE_DIR DCMTK_dcmimage_INCLUDE_DIR DCMTK_dcmimgle_INCLUDE_DIR DCMTK_dcmjpeg_INCLUDE_DIR DCMTK_dcmjpls_INCLUDE_DIR DCMTK_dcmnet_INCLUDE_DIR DCMTK_dcmpstat_INCLUDE_DIR DCMTK_dcmqrdb_INCLUDE_DIR DCMTK_dcmsign_INCLUDE_DIR DCMTK_dcmsr_INCLUDE_DIR DCMTK_dcmtls_INCLUDE_DIR DCMTK_ofstd_INCLUDE_DIR DCMTK_oflog_INCLUDE_DIR DCMTK_LIBRARIES) 
-- Gunrock not found.
-- Compiling without Tensor Core support.
-- Could NOT find Hypre (missing: HYPRE_LIBRARIES HYPRE_INCLUDE_DIRS) (found version "0.0.0")
-- Could NOT find Hypre (missing: HYPRE_LIBRARIES HYPRE_INCLUDE_DIRS) (found version "0.0.0")
-- Could NOT find Doxygen (missing: DOXYGEN_EXECUTABLE) 
-- GenCase download is disabled (ENABLE_GENCASE_DOWNLOAD is FALSE)
-- GenCase_linux64 already exists at /storage/praha1/home/haladto1/sph-benchmarks2/damBreak3D/resources_tnl-sph/build/_deps/tnl_sph-src/src/tools/3rdparty/GenCase_linux64, skipping download
-- Configuring done (11.5s)
-- Generating done (54.1s)
-- Build files have been written to: /storage/praha1/home/haladto1/sph-benchmarks2/damBreak3D/resources_tnl-sph/build
Built target damBreak3D_WCSPH-DBC_benchmark
Initial particle spacing: 0.015


 <GENCASE>  Copyright (c) 2025 by Dr Jose M. Dominguez
 All rights reserved.

 GenCase is a free tool for DualSPHysics simulations.
 DualSPHysics project is an international collaboration between
 University of Vigo (Spain) and University of Manchester (UK).

 Redistribution and use in binary form, without modification, are
 permitted provided that the following conditions are met:
 * Redistributions in binary form must reproduce the above copyright
   notice, this list of conditions and the following disclaimer in the
   documentation and/or other materials provided with the distribution.
 * Redistributions or modifications of source code are not permitted 
   unless expressly authorised, and must retain the above copyright 
   notice, this list of conditions and the following disclaimer.
 * Neither the name of the GenCase nor the names of its contributors
   may be used to endorse or promote products derived from this software
   without specific prior written permission.

 THIS SOFTWARE IS PROVIDED BY THE COPYRIGHT HOLDERS AND CONTRIBUTORS "AS IS"
 AND ANY EXPRESS OR IMPLIED WARRANTIES, INCLUDING, BUT NOT LIMITED TO, THE
 IMPLIED WARRANTIES OF MERCHANTABILITY AND FITNESS FOR A PARTICULAR PURPOSE
 ARE DISCLAIMED. IN NO EVENT SHALL THE COPYRIGHT OWNER BE LIABLE FOR ANY
 DIRECT, INDIRECT, INCIDENTAL, SPECIAL, EXEMPLARY, OR CONSEQUENTIAL DAMAGES
 (INCLUDING, BUT NOT LIMITED TO, PROCUREMENT OF SUBSTITUTE GOODS OR SERVICES;
 LOSS OF USE, DATA, OR PROFITS; OR BUSINESS INTERRUPTION) HOWEVER CAUSED AND
 ON ANY THEORY OF LIABILITY, WHETHER IN CONTRACT, STRICT LIABILITY, OR TORT
 (INCLUDING NEGLIGENCE OR OTHERWISE) ARISING IN ANY WAY OUT OF THE USE OF
 THIS SOFTWARE, EVEN IF ADVISED OF THE POSSIBILITY OF SUCH DAMAGE.


GenCase v5.4.354.01 (07-04-2025)
=================================
OmpThreads: 1

[LoadXMLInit]
List: GeometryForNormals
List: MAIN

Total operations: 38
[LoadXMLInit-End  time:0.009s]

[Draw]
List of available variables: Gravity_x=[0]  Gravity_y=[0]  Gravity_z=[-9.81]  Rhop0=[1000]  VResId=[0]  Dp=[0.015]  PosMin_x=[-1]  PosMin_y=[-1]  PosMin_z=[-1]  PosMax_x=[3.3]  PosMax_y=[1.1]  PosMax_z=[2.1]  CaseName=["damBreak3D_WCSPH-DBC"]  Data2D=[0]  Data2DPosy=[0]  H=[0.03]  MassBound=[0.003375]  MassFluid=[0.003375]

Mk size: 1 bytes
Case limits: (-1,-1,-1) - (3.3,1.1,2.1)
Distance between points (Dp): 0.015
Case domain: (0,0,0)-(285,139,205)
Domain points: 286 x 140 x 206 = 8,248,240
Case parts: 1 x 206z
Memory: 0.01 GiB  7.87 MiB  (8,248,240)

> MAIN
>> GeometryForNormals
FileShapes> hdp_Actual.vtk  shapes:22  points:44   (time:0.010s)
<< GeometryForNormals (8+6+1)
FileDbgDomains> damBreak3D_WCSPH-DBC_out/damBreak3D_WCSPH-DBC_dbg-fillbox.vtk  domains:1
FileShapes> _Actual.vtk  shapes:66  points:132   (time:0.003s)
<MAIN (Operations= 25+13+2 = 40)

Triangles: 176 (0 ignored)
[Draw-End  time:0.040s]

[LoadsXMLConfig]
Execution parameters.
Initials configuration.
Floating bodies configuration.
Properties configuration.
Predefined motion configuration.
[LoadsXMLConfig-End  time:0.002s]

[PreparePoints]
Computing Vtk-Cells data...  (time:0.157s)
BitSizeTot: 25 (2 + 8+7+8)
Points loaded: 504,417
Sorting points by Z...
Sorting points by Mk...
Computing Grid-points...  (time:0.041s)

List of Points:
Points -> Fixed-Boundary particles:
  block[  0] (mk: 10): 317331  -->  317331
  block[  1] (mk: 11):   2811  -->    2811
Points -> Fluid particles:
  block[  2] (mk:  1): 184275  -->  184275

Particle summary:
  Fixed....: 320,142  id:(0-320141)   MKs:2 (10-11)
  Moving...: 0
  Floating.: 0
  Fluid....: 184,275  id:(320142-504416)   MKs:1 (1)

Total particles: 504,417 (bound=320142 (fx=320142 mv=0 ft=0) fluid=184275)
Total MK blocks: 3 (bound=2 (fx=2 mv=0 ft=0) fluid=1)

Maximum depth: 0.51 (automatic)
Speed of system: 2.23676 (automatic)
Speed of sound: max(coefsound*speedsystem,10*sqrt(g*depth))
Speed of sound: 44.7352 max(44.7352,22.3676)
Speed of sound: 44.7352 (automatic)

Coefh:1.154701 (hdp:2.000000)

[PreparePoints-End  time:0.202s]

[SaveCase3D]
damBreak3D_WCSPH-DBC_out/damBreak3D_WCSPH-DBC_MkCells.vtk  (time:0.003s, shapes:42, points:168)
damBreak3D_WCSPH-DBC_out/damBreak3D_WCSPH-DBC.bi4<double>  (time:0.212s)
damBreak3D_WCSPH-DBC_out/damBreak3D_WCSPH-DBC_Bound.vtk  (time: 0.095s)
damBreak3D_WCSPH-DBC_out/damBreak3D_WCSPH-DBC_Fluid.vtk  (time: 0.084s)
damBreak3D_WCSPH-DBC_out/damBreak3D_WCSPH-DBC.xml  (time:0.006s)
 
Computing normals...

*** WARNING: Current <normals> configuration is deprecated (damBreak3D_WCSPH-DBC_Def.xml(row:149)).

  Evaluating 320,142 particles with 22 shapes (distance 2x H = 0.06).
  Time for computing 357,526 normals: 0.083s   Max.Memory: 12.11 MiB
  Non-zero particle normals: 320,142/320,142    Normals size range: (0.007500 - 0.064952).
  Final zero normals: 0/320,142 (0.0%)   Maximum normal: 0.0649519 (2.17 x h)

Save files time: 0.915s

Particle limits:
  X range: -0.025 to 3.245 [m]
  Y range: -0.025 to 1.025 [m]
  Z range: -0.025 to 2.03 [m]

[SaveCase3D-End  time:0.932s]

[WARNINGS]
1. Current <normals> configuration is deprecated (damBreak3D_WCSPH-DBC_Def.xml(row:149)).

Time of execution: 1.224 sec. (1 threads)

Finished execution (code=0).

Geometry for resolutin with initial particle spacing 0.015 was successfuly generated.
{'dp': 0.015, 'h_coef': 2, 'density': 1000, 'speed_of_sound': 45.17, 'cfl': 0.15, 'particle_mass': 0.003375, 'smoothing_length': 0.03, 'search_radius': 0.06, 'time_step': 9.962364401151205e-05, 'fluid_n': 184275, 'boundary_n': 320142, 'domain_origin_x': np.float32(-0.085425), 'domain_origin_y': np.float32(-0.085425), 'domain_origin_z': np.float32(-0.085425), 'domain_end_x': np.float32(3.245), 'domain_end_y': np.float32(1.025), 'domain_end_z': np.float32(2.03), 'domain_size_x': np.float32(3.4069498), 'domain_size_y': np.float32(1.1758499), 'domain_size_z': np.float32(3.2204247)}
+--------------------------------------------------------------------------------------------------+
|                                                                                                  |
|                                   SPH simulation initialization.                                 |
|                                                                                                  |
+--------------------------------------------------------------------------------------------------+
| Reading fluid particles:                                               sources/dambreak_fluid.vtk |
| Reading boundary particles:                                         sources/dambreak_boundary.vtk |
+--------------------------------------------------------------------------------------------------+
+--------------------------------------------------------------------------------------------------+
|                                                                                                  |
|                              SPH simulation successfully initialized.                            |
|                                                                                                  |
+--------------------------------------------------------------------------------------------------+
+--------------------------------------------------------------------------------------------------+
|                                                                                                  |
|                                   SPH simulation configuration.                                  |
|                                                                                                  |
+--------------------------------------------------------------------------------------------------+
| Case name:                                                                   damBreak3D_WCSPH-DBC |
+--------------------------------------------------------------------------------------------------+
| MPI processes:                                                                                  1 |
| Device type:                                                                    TNL::Devices::GPU |
| Particle system type:                                    TNL::ParticleSystem::ParticlesLinkedList |
| SPH model:                                                                    TNL::SPH::WCSPH_DBC |
| Verbose:                                                                            with-snapshot |
| Output directory:                                                                         results |
| Particles format                                                                             auto |
+--------------------------------------------------------------------------------------------------+
|                                                                                                  |
|                         TNL::SPH::WCSPH_DBC (delta-WCSPH) model parameters                       |
|                                                                                                  |
+--------------------------------------------------------------------------------------------------+
| Resolution parameters                                                                             |
|  Initial particle distance (dp):                                                            0.015 |
|  Smoothing length (h):                                                                       0.03 |
|  Spatial resolution (h/dp):                                                                     2 |
|  Particle mass (mass):                                                                   0.003375 |
| Model parameters                                                                                  |
|  Diffusive term:                                                   TNL::SPH::MolteniDiffusiveTerm |
|  Diffusive term coefficient (delta):                                                          0.1 |
|  Viscous term:                                                      TNL::SPH::ArtificialViscosity |
|  Artificial vicosity coefficient (alpha):                                                    0.02 |
|  Equation of state:                                           TNL::SPH::TaitWeaklyCompressibleEOS |
| Coefficient of EOS (coefB):                                                                291476 |
|  Speed of sound (speedOfSound):                                                             45.17 |
|  Referentail density (rho0):                                                                 1000 |
| Boundary condition type                                                  TNL::SPH::WCSPH_DBC::DBC |
| Time integration                                                                                  |
|  Integration scheme:                                            TNL::SPH::WCSPH_DBC::VerletScheme |
|  Time stepping:                                                        TNL::SPH::ConstantTimeStep |
|  Initial time step (dtInit):                                                            9.962e-05 |
| External bulk force:                                                              [ 0, 0, -9.81 ] |
+--------------------------------------------------------------------------------------------------+
|                                                                                                  |
|                                     Fluid object information.                                    |
|                                                                                                  |
+--------------------------------------------------------------------------------------------------+
| Particle system parameters:                                                                       |
| Number of particles:                                                                       184275 |
| Number of allocated particles:                                                             184275 |
| Search radius:                                                                               0.06 |
| Grid origin:                                                     [ -0.08542, -0.08542, -0.08542 ] |
| Grid origin global coordinates:                                                       [ 0, 0, 0 ] |
| Grid origin global coordinates with overlap:                                          [ 0, 0, 0 ] |
| Grid referential origin:                                         [ -0.08542, -0.08542, -0.08542 ] |
| Grid dimensions:                                                                   [ 59, 22, 56 ] |
| Domain grid overlap width:                                                                      0 |
| Grid origin with overlap:                                        [ -0.08542, -0.08542, -0.08542 ] |
| Grid dimension with overlap:                                                       [ 59, 22, 56 ] |
+--------------------------------------------------------------------------------------------------+
|                                                                                                  |
|                                    Boundary object information:                                  |
|                                                                                                  |
+--------------------------------------------------------------------------------------------------+
| Particle system parameters:                                                                       |
| Number of particles:                                                                       320142 |
| Number of allocated particles:                                                             320142 |
| Search radius:                                                                               0.06 |
| Grid origin:                                                     [ -0.08542, -0.08542, -0.08542 ] |
| Grid origin global coordinates:                                                       [ 0, 0, 0 ] |
| Grid origin global coordinates with overlap:                                          [ 0, 0, 0 ] |
| Grid referential origin:                                         [ -0.08542, -0.08542, -0.08542 ] |
| Grid dimensions:                                                                   [ 59, 22, 56 ] |
| Domain grid overlap width:                                                                      0 |
| Grid origin with overlap:                                        [ -0.08542, -0.08542, -0.08542 ] |
| Grid dimension with overlap:                                                       [ 59, 22, 56 ] |
+--------------------------------------------------------------------------------------------------+
|                                                                                                  |
|                                        System information.                                       |
|                                                                                                  |
+--------------------------------------------------------------------------------------------------+
| Host name:                                                                     fau1.natur.cuni.cz |
| System:                                                                                     Linux |
| Release:                                                                           6.1.0-41-amd64 |
| Architecture:                                                                               AMD64 |
| TNL compiler:                                                               Nvidia NVCC (12.6.68) |
| CPU info                                                                                          |
|  Model name:                                                      AMD EPYC 7452 32-Core Processor |
|  Cores:                                                                                        32 |
|  Threads per core:                                                                              1 |
|  Max clock rate (in MHz):                                                                    2350 |
|  Cache (L1d, L1i, L2, L3):                                                     32, 32, 512, 16384 |
| GPU info                                                                                          |
|  Name                                                                             Quadro RTX 5000 |
|  Architecture                                                                                 7.5 |
|  GPU cores                                                                                   3072 |
|  Global memory (in GB)                                                                     16.702 |
|  ECC enabled                                                                                    0 |
+--------------------------------------------------------------------------------------------------+
| Started at:                                                             Sat Jan 24 2026, 18:56:56 |
+--------------------------------------------------------------------------------------------------+
+--------------------------------------------------------------------------------------------------+
| Simulation time: 0.000000 s, simulation step: 0                                                   |
| Current time:                                                           Sat Jan 24 2026, 18:56:56 |
| Number of fluid particles:                                                                 184275 |
| Number of allocated fluid particles:                                                       184275 |
| Number of boundary particles:                                                              320142 |
| Number of allocated fluid particles:                                                       320142 |
+--------------------------------------------------------------------------------------------------+
| Saved:                                                       results/fluid_0.000000_particles.vtk |
| Saved:                                                    results/boundary_0.000000_particles.vtk |
| Saved:                                                                  results/grid_0.000000.vtk |
+--------------------------------------------------------------------------------------------------+
|                                                                                                  |
|                               SPH simulation successfully finished.                              |
|                                                                                                  |
+--------------------------------------------------------------------------------------------------+
| Ended at:                                                               Sat Jan 24 2026, 18:58:55 |
+--------------------------------------------------------------------------------------------------+
|                                                                                                  |
|                                          Computation time                                        |
|                                                                                                  |
+--------------------------------------------------------------------------------------------------+
| integrate                                                                                   4.248 |
| integrate-average                                                                     0.000105824 |
| integrate-percentage                                                                      3.60119 |
+--------------------------------------------------------------------------------------------------+
| interact                                                                                   106.54 |
| interact-average                                                                       0.00265408 |
| interact-percentage                                                                       90.3179 |
+--------------------------------------------------------------------------------------------------+
| search                                                                                    7.17312 |
| search-average                                                                        0.000178694 |
| search-percentage                                                                         6.08092 |
+--------------------------------------------------------------------------------------------------+
| search_cellIndices                                                                              0 |
| search_cellIndices-average                                                                      0 |
| search_cellIndices-percentage                                                                   0 |
+--------------------------------------------------------------------------------------------------+
| search_reset                                                                                    0 |
| search_reset-average                                                                            0 |
| search_reset-percentage                                                                         0 |
+--------------------------------------------------------------------------------------------------+
| search_sort                                                                                     0 |
| search_sort-average                                                                             0 |
| search_sort-percentage                                                                          0 |
+--------------------------------------------------------------------------------------------------+
| search_toCells                                                                                  0 |
| search_toCells-average                                                                          0 |
| search_toCells-percentage                                                                       0 |
+--------------------------------------------------------------------------------------------------+
| Total time:                                                                               117.961 |
+--------------------------------------------------------------------------------------------------+
Running TNL-SPH solver with resolution 0.013.
-- Trying to find DCMTK expecting DCMTKConfig.cmake
-- Trying to find DCMTK expecting DCMTKConfig.cmake - failed
-- Trying to find DCMTK relying on FindDCMTK.cmake
-- Please set DCMTK_DIR and re-run configure (missing: DCMTK_config_INCLUDE_DIR DCMTK_dcmdata_INCLUDE_DIR DCMTK_dcmimage_INCLUDE_DIR DCMTK_dcmimgle_INCLUDE_DIR DCMTK_dcmjpeg_INCLUDE_DIR DCMTK_dcmjpls_INCLUDE_DIR DCMTK_dcmnet_INCLUDE_DIR DCMTK_dcmpstat_INCLUDE_DIR DCMTK_dcmqrdb_INCLUDE_DIR DCMTK_dcmsign_INCLUDE_DIR DCMTK_dcmsr_INCLUDE_DIR DCMTK_dcmtls_INCLUDE_DIR DCMTK_ofstd_INCLUDE_DIR DCMTK_oflog_INCLUDE_DIR DCMTK_LIBRARIES) 
-- Gunrock not found.
-- Compiling without Tensor Core support.
-- Could NOT find Hypre (missing: HYPRE_LIBRARIES HYPRE_INCLUDE_DIRS) (found version "0.0.0")
-- Could NOT find Hypre (missing: HYPRE_LIBRARIES HYPRE_INCLUDE_DIRS) (found version "0.0.0")
-- Could NOT find Doxygen (missing: DOXYGEN_EXECUTABLE) 
-- GenCase download is disabled (ENABLE_GENCASE_DOWNLOAD is FALSE)
-- GenCase_linux64 already exists at /storage/praha1/home/haladto1/sph-benchmarks2/damBreak3D/resources_tnl-sph/build/_deps/tnl_sph-src/src/tools/3rdparty/GenCase_linux64, skipping download
-- Configuring done (11.6s)
-- Generating done (59.0s)
-- Build files have been written to: /storage/praha1/home/haladto1/sph-benchmarks2/damBreak3D/resources_tnl-sph/build
Built target damBreak3D_WCSPH-DBC_benchmark
Initial particle spacing: 0.013


 <GENCASE>  Copyright (c) 2025 by Dr Jose M. Dominguez
 All rights reserved.

 GenCase is a free tool for DualSPHysics simulations.
 DualSPHysics project is an international collaboration between
 University of Vigo (Spain) and University of Manchester (UK).

 Redistribution and use in binary form, without modification, are
 permitted provided that the following conditions are met:
 * Redistributions in binary form must reproduce the above copyright
   notice, this list of conditions and the following disclaimer in the
   documentation and/or other materials provided with the distribution.
 * Redistributions or modifications of source code are not permitted 
   unless expressly authorised, and must retain the above copyright 
   notice, this list of conditions and the following disclaimer.
 * Neither the name of the GenCase nor the names of its contributors
   may be used to endorse or promote products derived from this software
   without specific prior written permission.

 THIS SOFTWARE IS PROVIDED BY THE COPYRIGHT HOLDERS AND CONTRIBUTORS "AS IS"
 AND ANY EXPRESS OR IMPLIED WARRANTIES, INCLUDING, BUT NOT LIMITED TO, THE
 IMPLIED WARRANTIES OF MERCHANTABILITY AND FITNESS FOR A PARTICULAR PURPOSE
 ARE DISCLAIMED. IN NO EVENT SHALL THE COPYRIGHT OWNER BE LIABLE FOR ANY
 DIRECT, INDIRECT, INCIDENTAL, SPECIAL, EXEMPLARY, OR CONSEQUENTIAL DAMAGES
 (INCLUDING, BUT NOT LIMITED TO, PROCUREMENT OF SUBSTITUTE GOODS OR SERVICES;
 LOSS OF USE, DATA, OR PROFITS; OR BUSINESS INTERRUPTION) HOWEVER CAUSED AND
 ON ANY THEORY OF LIABILITY, WHETHER IN CONTRACT, STRICT LIABILITY, OR TORT
 (INCLUDING NEGLIGENCE OR OTHERWISE) ARISING IN ANY WAY OUT OF THE USE OF
 THIS SOFTWARE, EVEN IF ADVISED OF THE POSSIBILITY OF SUCH DAMAGE.


GenCase v5.4.354.01 (07-04-2025)
=================================
OmpThreads: 1

[LoadXMLInit]
List: GeometryForNormals
List: MAIN

Total operations: 38
[LoadXMLInit-End  time:0.009s]

[Draw]
List of available variables: Gravity_x=[0]  Gravity_y=[0]  Gravity_z=[-9.81]  Rhop0=[1000]  VResId=[0]  Dp=[0.013]  PosMin_x=[-1]  PosMin_y=[-1]  PosMin_z=[-1]  PosMax_x=[3.3]  PosMax_y=[1.1]  PosMax_z=[2.1]  CaseName=["damBreak3D_WCSPH-DBC"]  Data2D=[0]  Data2DPosy=[0]  H=[0.026]  MassBound=[0.002197]  MassFluid=[0.002197]

Mk size: 1 bytes
Case limits: (-1,-1,-1) - (3.3,1.1,2.1)
Distance between points (Dp): 0.013
Case domain: (0,0,0)-(329,160,237)
Domain points: 330 x 161 x 238 = 12,644,940
Case parts: 1 x 238z
Memory: 0.01 GiB  12.06 MiB  (12,644,940)

> MAIN
>> GeometryForNormals
FileShapes> hdp_Actual.vtk  shapes:22  points:44   (time:0.010s)
<< GeometryForNormals (8+6+1)
FileDbgDomains> damBreak3D_WCSPH-DBC_out/damBreak3D_WCSPH-DBC_dbg-fillbox.vtk  domains:1
FileShapes> _Actual.vtk  shapes:66  points:132   (time:0.003s)
<MAIN (Operations= 25+13+2 = 40)

Triangles: 176 (0 ignored)
[Draw-End  time:0.047s]

[LoadsXMLConfig]
Execution parameters.
Initials configuration.
Floating bodies configuration.
Properties configuration.
Predefined motion configuration.
[LoadsXMLConfig-End  time:0.002s]

[PreparePoints]
Computing Vtk-Cells data...  (time:0.225s)
BitSizeTot: 25 (2 + 8+7+8)
Points loaded: 722,210
Sorting points by Z...
Sorting points by Mk...
Computing Grid-points...  (time:0.061s)

List of Points:
Points -> Fixed-Boundary particles:
  block[  0] (mk: 10): 425250  -->  425250
  block[  1] (mk: 11):   4056  -->    4056
Points -> Fluid particles:
  block[  2] (mk:  1): 292904  -->  292904

Particle summary:
  Fixed....: 429,306  id:(0-429305)   MKs:2 (10-11)
  Moving...: 0
  Floating.: 0
  Fluid....: 292,904  id:(429306-722209)   MKs:1 (1)

Total particles: 722,210 (bound=429306 (fx=429306 mv=0 ft=0) fluid=292904)
Total MK blocks: 3 (bound=2 (fx=2 mv=0 ft=0) fluid=1)

Maximum depth: 0.52 (automatic)
Speed of system: 2.25858 (automatic)
Speed of sound: max(coefsound*speedsystem,10*sqrt(g*depth))
Speed of sound: 45.1717 max(45.1717,22.5858)
Speed of sound: 45.1717 (automatic)

Coefh:1.154701 (hdp:2.000000)

[PreparePoints-End  time:0.291s]

[SaveCase3D]
damBreak3D_WCSPH-DBC_out/damBreak3D_WCSPH-DBC_MkCells.vtk  (time:0.004s, shapes:42, points:168)
damBreak3D_WCSPH-DBC_out/damBreak3D_WCSPH-DBC.bi4<double>  (time:0.301s)
damBreak3D_WCSPH-DBC_out/damBreak3D_WCSPH-DBC_Bound.vtk  (time: 0.122s)
damBreak3D_WCSPH-DBC_out/damBreak3D_WCSPH-DBC_Fluid.vtk  (time: 0.129s)
damBreak3D_WCSPH-DBC_out/damBreak3D_WCSPH-DBC.xml  (time:0.009s)
 
Computing normals...

*** WARNING: Current <normals> configuration is deprecated (damBreak3D_WCSPH-DBC_Def.xml(row:149)).

  Evaluating 429,306 particles with 22 shapes (distance 2x H = 0.052).
  Time for computing 472,543 normals: 0.105s   Max.Memory: 16.24 MiB
  Non-zero particle normals: 429,306/429,306    Normals size range: (0.006500 - 0.056292).
  Final zero normals: 0/429,306 (0.0%)   Maximum normal: 0.0562917 (2.17 x h)

Save files time: 1.246s

Particle limits:
  X range: -0.025 to 3.251 [m]
  Y range: -0.025 to 1.028 [m]
  Z range: -0.025 to 2.029 [m]

[SaveCase3D-End  time:1.266s]

[WARNINGS]
1. Current <normals> configuration is deprecated (damBreak3D_WCSPH-DBC_Def.xml(row:149)).

Time of execution: 1.654 sec. (1 threads)

Finished execution (code=0).

Geometry for resolutin with initial particle spacing 0.013 was successfuly generated.
{'dp': 0.013, 'h_coef': 2, 'density': 1000, 'speed_of_sound': 45.17, 'cfl': 0.15, 'particle_mass': 0.0021969999999999997, 'smoothing_length': 0.026, 'search_radius': 0.052, 'time_step': 8.634049147664378e-05, 'fluid_n': 292904, 'boundary_n': 429306, 'domain_origin_x': np.float32(-0.077385), 'domain_origin_y': np.float32(-0.077385), 'domain_origin_z': np.float32(-0.077385), 'domain_end_x': np.float32(3.251), 'domain_end_y': np.float32(1.028), 'domain_end_z': np.float32(2.029), 'domain_size_x': np.float32(3.3969), 'domain_size_y': np.float32(1.1627849), 'domain_size_z': np.float32(3.198885)}
+--------------------------------------------------------------------------------------------------+
|                                                                                                  |
|                                   SPH simulation initialization.                                 |
|                                                                                                  |
+--------------------------------------------------------------------------------------------------+
| Reading fluid particles:                                               sources/dambreak_fluid.vtk |
| Reading boundary particles:                                         sources/dambreak_boundary.vtk |
+--------------------------------------------------------------------------------------------------+
+--------------------------------------------------------------------------------------------------+
|                                                                                                  |
|                              SPH simulation successfully initialized.                            |
|                                                                                                  |
+--------------------------------------------------------------------------------------------------+
+--------------------------------------------------------------------------------------------------+
|                                                                                                  |
|                                   SPH simulation configuration.                                  |
|                                                                                                  |
+--------------------------------------------------------------------------------------------------+
| Case name:                                                                   damBreak3D_WCSPH-DBC |
+--------------------------------------------------------------------------------------------------+
| MPI processes:                                                                                  1 |
| Device type:                                                                    TNL::Devices::GPU |
| Particle system type:                                    TNL::ParticleSystem::ParticlesLinkedList |
| SPH model:                                                                    TNL::SPH::WCSPH_DBC |
| Verbose:                                                                            with-snapshot |
| Output directory:                                                                         results |
| Particles format                                                                             auto |
+--------------------------------------------------------------------------------------------------+
|                                                                                                  |
|                         TNL::SPH::WCSPH_DBC (delta-WCSPH) model parameters                       |
|                                                                                                  |
+--------------------------------------------------------------------------------------------------+
| Resolution parameters                                                                             |
|  Initial particle distance (dp):                                                            0.013 |
|  Smoothing length (h):                                                                      0.026 |
|  Spatial resolution (h/dp):                                                                     2 |
|  Particle mass (mass):                                                                   0.002197 |
| Model parameters                                                                                  |
|  Diffusive term:                                                   TNL::SPH::MolteniDiffusiveTerm |
|  Diffusive term coefficient (delta):                                                          0.1 |
|  Viscous term:                                                      TNL::SPH::ArtificialViscosity |
|  Artificial vicosity coefficient (alpha):                                                    0.02 |
|  Equation of state:                                           TNL::SPH::TaitWeaklyCompressibleEOS |
| Coefficient of EOS (coefB):                                                                291476 |
|  Speed of sound (speedOfSound):                                                             45.17 |
|  Referentail density (rho0):                                                                 1000 |
| Boundary condition type                                                  TNL::SPH::WCSPH_DBC::DBC |
| Time integration                                                                                  |
|  Integration scheme:                                            TNL::SPH::WCSPH_DBC::VerletScheme |
|  Time stepping:                                                        TNL::SPH::ConstantTimeStep |
|  Initial time step (dtInit):                                                            8.634e-05 |
| External bulk force:                                                              [ 0, 0, -9.81 ] |
+--------------------------------------------------------------------------------------------------+
|                                                                                                  |
|                                     Fluid object information.                                    |
|                                                                                                  |
+--------------------------------------------------------------------------------------------------+
| Particle system parameters:                                                                       |
| Number of particles:                                                                       292904 |
| Number of allocated particles:                                                             292904 |
| Search radius:                                                                              0.052 |
| Grid origin:                                                     [ -0.07738, -0.07738, -0.07738 ] |
| Grid origin global coordinates:                                                       [ 0, 0, 0 ] |
| Grid origin global coordinates with overlap:                                          [ 0, 0, 0 ] |
| Grid referential origin:                                         [ -0.07738, -0.07738, -0.07738 ] |
| Grid dimensions:                                                                   [ 67, 24, 64 ] |
| Domain grid overlap width:                                                                      0 |
| Grid origin with overlap:                                        [ -0.07738, -0.07738, -0.07738 ] |
| Grid dimension with overlap:                                                       [ 67, 24, 64 ] |
+--------------------------------------------------------------------------------------------------+
|                                                                                                  |
|                                    Boundary object information:                                  |
|                                                                                                  |
+--------------------------------------------------------------------------------------------------+
| Particle system parameters:                                                                       |
| Number of particles:                                                                       429306 |
| Number of allocated particles:                                                             429306 |
| Search radius:                                                                              0.052 |
| Grid origin:                                                     [ -0.07738, -0.07738, -0.07738 ] |
| Grid origin global coordinates:                                                       [ 0, 0, 0 ] |
| Grid origin global coordinates with overlap:                                          [ 0, 0, 0 ] |
| Grid referential origin:                                         [ -0.07738, -0.07738, -0.07738 ] |
| Grid dimensions:                                                                   [ 67, 24, 64 ] |
| Domain grid overlap width:                                                                      0 |
| Grid origin with overlap:                                        [ -0.07738, -0.07738, -0.07738 ] |
| Grid dimension with overlap:                                                       [ 67, 24, 64 ] |
+--------------------------------------------------------------------------------------------------+
|                                                                                                  |
|                                        System information.                                       |
|                                                                                                  |
+--------------------------------------------------------------------------------------------------+
| Host name:                                                                     fau1.natur.cuni.cz |
| System:                                                                                     Linux |
| Release:                                                                           6.1.0-41-amd64 |
| Architecture:                                                                               AMD64 |
| TNL compiler:                                                               Nvidia NVCC (12.6.68) |
| CPU info                                                                                          |
|  Model name:                                                      AMD EPYC 7452 32-Core Processor |
|  Cores:                                                                                        32 |
|  Threads per core:                                                                              1 |
|  Max clock rate (in MHz):                                                                    2350 |
|  Cache (L1d, L1i, L2, L3):                                                     32, 32, 512, 16384 |
| GPU info                                                                                          |
|  Name                                                                             Quadro RTX 5000 |
|  Architecture                                                                                 7.5 |
|  GPU cores                                                                                   3072 |
|  Global memory (in GB)                                                                     16.702 |
|  ECC enabled                                                                                    0 |
+--------------------------------------------------------------------------------------------------+
| Started at:                                                             Sat Jan 24 2026, 19:00:16 |
+--------------------------------------------------------------------------------------------------+
+--------------------------------------------------------------------------------------------------+
| Simulation time: 0.000000 s, simulation step: 0                                                   |
| Current time:                                                           Sat Jan 24 2026, 19:00:16 |
| Number of fluid particles:                                                                 292904 |
| Number of allocated fluid particles:                                                       292904 |
| Number of boundary particles:                                                              429306 |
| Number of allocated fluid particles:                                                       429306 |
+--------------------------------------------------------------------------------------------------+
| Saved:                                                       results/fluid_0.000000_particles.vtk |
| Saved:                                                    results/boundary_0.000000_particles.vtk |
| Saved:                                                                  results/grid_0.000000.vtk |
+--------------------------------------------------------------------------------------------------+
|                                                                                                  |
|                               SPH simulation successfully finished.                              |
|                                                                                                  |
+--------------------------------------------------------------------------------------------------+
| Ended at:                                                               Sat Jan 24 2026, 19:03:42 |
+--------------------------------------------------------------------------------------------------+
|                                                                                                  |
|                                          Computation time                                        |
|                                                                                                  |
+--------------------------------------------------------------------------------------------------+
| integrate                                                                                 6.78571 |
| integrate-average                                                                     0.000146433 |
| integrate-percentage                                                                      3.30366 |
+--------------------------------------------------------------------------------------------------+
| interact                                                                                  187.623 |
| interact-average                                                                       0.00404883 |
| interact-percentage                                                                       91.3453 |
+--------------------------------------------------------------------------------------------------+
| search                                                                                     10.991 |
| search-average                                                                        0.000237182 |
| search-percentage                                                                         5.35105 |
+--------------------------------------------------------------------------------------------------+
| search_cellIndices                                                                              0 |
| search_cellIndices-average                                                                      0 |
| search_cellIndices-percentage                                                                   0 |
+--------------------------------------------------------------------------------------------------+
| search_reset                                                                                    0 |
| search_reset-average                                                                            0 |
| search_reset-percentage                                                                         0 |
+--------------------------------------------------------------------------------------------------+
| search_sort                                                                                     0 |
| search_sort-average                                                                             0 |
| search_sort-percentage                                                                          0 |
+--------------------------------------------------------------------------------------------------+
| search_toCells                                                                                  0 |
| search_toCells-average                                                                          0 |
| search_toCells-percentage                                                                       0 |
+--------------------------------------------------------------------------------------------------+
| Total time:                                                                                 205.4 |
+--------------------------------------------------------------------------------------------------+
Running TNL-SPH solver with resolution 0.012.
-- Trying to find DCMTK expecting DCMTKConfig.cmake
-- Trying to find DCMTK expecting DCMTKConfig.cmake - failed
-- Trying to find DCMTK relying on FindDCMTK.cmake
-- Please set DCMTK_DIR and re-run configure (missing: DCMTK_config_INCLUDE_DIR DCMTK_dcmdata_INCLUDE_DIR DCMTK_dcmimage_INCLUDE_DIR DCMTK_dcmimgle_INCLUDE_DIR DCMTK_dcmjpeg_INCLUDE_DIR DCMTK_dcmjpls_INCLUDE_DIR DCMTK_dcmnet_INCLUDE_DIR DCMTK_dcmpstat_INCLUDE_DIR DCMTK_dcmqrdb_INCLUDE_DIR DCMTK_dcmsign_INCLUDE_DIR DCMTK_dcmsr_INCLUDE_DIR DCMTK_dcmtls_INCLUDE_DIR DCMTK_ofstd_INCLUDE_DIR DCMTK_oflog_INCLUDE_DIR DCMTK_LIBRARIES) 
-- Gunrock not found.
-- Compiling without Tensor Core support.
-- Could NOT find Hypre (missing: HYPRE_LIBRARIES HYPRE_INCLUDE_DIRS) (found version "0.0.0")
-- Could NOT find Hypre (missing: HYPRE_LIBRARIES HYPRE_INCLUDE_DIRS) (found version "0.0.0")
-- Could NOT find Doxygen (missing: DOXYGEN_EXECUTABLE) 
-- GenCase download is disabled (ENABLE_GENCASE_DOWNLOAD is FALSE)
-- GenCase_linux64 already exists at /storage/praha1/home/haladto1/sph-benchmarks2/damBreak3D/resources_tnl-sph/build/_deps/tnl_sph-src/src/tools/3rdparty/GenCase_linux64, skipping download
-- Configuring done (12.0s)
-- Generating done (56.8s)
-- Build files have been written to: /storage/praha1/home/haladto1/sph-benchmarks2/damBreak3D/resources_tnl-sph/build
Built target damBreak3D_WCSPH-DBC_benchmark
Initial particle spacing: 0.012


 <GENCASE>  Copyright (c) 2025 by Dr Jose M. Dominguez
 All rights reserved.

 GenCase is a free tool for DualSPHysics simulations.
 DualSPHysics project is an international collaboration between
 University of Vigo (Spain) and University of Manchester (UK).

 Redistribution and use in binary form, without modification, are
 permitted provided that the following conditions are met:
 * Redistributions in binary form must reproduce the above copyright
   notice, this list of conditions and the following disclaimer in the
   documentation and/or other materials provided with the distribution.
 * Redistributions or modifications of source code are not permitted 
   unless expressly authorised, and must retain the above copyright 
   notice, this list of conditions and the following disclaimer.
 * Neither the name of the GenCase nor the names of its contributors
   may be used to endorse or promote products derived from this software
   without specific prior written permission.

 THIS SOFTWARE IS PROVIDED BY THE COPYRIGHT HOLDERS AND CONTRIBUTORS "AS IS"
 AND ANY EXPRESS OR IMPLIED WARRANTIES, INCLUDING, BUT NOT LIMITED TO, THE
 IMPLIED WARRANTIES OF MERCHANTABILITY AND FITNESS FOR A PARTICULAR PURPOSE
 ARE DISCLAIMED. IN NO EVENT SHALL THE COPYRIGHT OWNER BE LIABLE FOR ANY
 DIRECT, INDIRECT, INCIDENTAL, SPECIAL, EXEMPLARY, OR CONSEQUENTIAL DAMAGES
 (INCLUDING, BUT NOT LIMITED TO, PROCUREMENT OF SUBSTITUTE GOODS OR SERVICES;
 LOSS OF USE, DATA, OR PROFITS; OR BUSINESS INTERRUPTION) HOWEVER CAUSED AND
 ON ANY THEORY OF LIABILITY, WHETHER IN CONTRACT, STRICT LIABILITY, OR TORT
 (INCLUDING NEGLIGENCE OR OTHERWISE) ARISING IN ANY WAY OUT OF THE USE OF
 THIS SOFTWARE, EVEN IF ADVISED OF THE POSSIBILITY OF SUCH DAMAGE.


GenCase v5.4.354.01 (07-04-2025)
=================================
OmpThreads: 1

[LoadXMLInit]
List: GeometryForNormals
List: MAIN

Total operations: 38
[LoadXMLInit-End  time:0.009s]

[Draw]
List of available variables: Gravity_x=[0]  Gravity_y=[0]  Gravity_z=[-9.81]  Rhop0=[1000]  VResId=[0]  Dp=[0.012]  PosMin_x=[-1]  PosMin_y=[-1]  PosMin_z=[-1]  PosMax_x=[3.3]  PosMax_y=[1.1]  PosMax_z=[2.1]  CaseName=["damBreak3D_WCSPH-DBC"]  Data2D=[0]  Data2DPosy=[0]  H=[0.024]  MassBound=[0.001728]  MassFluid=[0.001728]

Mk size: 1 bytes
Case limits: (-1,-1,-1) - (3.3,1.1,2.1)
Distance between points (Dp): 0.012
Case domain: (0,0,0)-(357,174,257)
Domain points: 358 x 175 x 258 = 16,163,700
Case parts: 1 x 258z
Memory: 0.02 GiB  15.41 MiB  (16,163,700)

> MAIN
>> GeometryForNormals
FileShapes> hdp_Actual.vtk  shapes:22  points:44   (time:0.010s)
<< GeometryForNormals (8+6+1)
FileDbgDomains> damBreak3D_WCSPH-DBC_out/damBreak3D_WCSPH-DBC_dbg-fillbox.vtk  domains:1
FileShapes> _Actual.vtk  shapes:66  points:132   (time:0.003s)
<MAIN (Operations= 25+13+2 = 40)

Triangles: 176 (0 ignored)
[Draw-End  time:0.054s]

[LoadsXMLConfig]
Execution parameters.
Initials configuration.
Floating bodies configuration.
Properties configuration.
Predefined motion configuration.
[LoadsXMLConfig-End  time:0.002s]

[PreparePoints]
Computing Vtk-Cells data...  (time:0.279s)
BitSizeTot: 26 (2 + 9+7+8)
Points loaded: 886,554
Sorting points by Z...
Sorting points by Mk...
Computing Grid-points...  (time:0.077s)

List of Points:
Points -> Fixed-Boundary particles:
  block[  0] (mk: 10): 500313  -->  500313
  block[  1] (mk: 11):   5271  -->    5271
Points -> Fluid particles:
  block[  2] (mk:  1): 380970  -->  380970

Particle summary:
  Fixed....: 505,584  id:(0-505583)   MKs:2 (10-11)
  Moving...: 0
  Floating.: 0
  Fluid....: 380,970  id:(505584-886553)   MKs:1 (1)

Total particles: 886,554 (bound=505584 (fx=505584 mv=0 ft=0) fluid=380970)
Total MK blocks: 3 (bound=2 (fx=2 mv=0 ft=0) fluid=1)

Maximum depth: 0.528 (automatic)
Speed of system: 2.27589 (automatic)
Speed of sound: max(coefsound*speedsystem,10*sqrt(g*depth))
Speed of sound: 45.5178 max(45.5178,22.7589)
Speed of sound: 45.5178 (automatic)

Coefh:1.154701 (hdp:2.000000)

[PreparePoints-End  time:0.361s]

[SaveCase3D]
damBreak3D_WCSPH-DBC_out/damBreak3D_WCSPH-DBC_MkCells.vtk  (time:0.004s, shapes:42, points:168)
damBreak3D_WCSPH-DBC_out/damBreak3D_WCSPH-DBC.bi4<double>  (time:0.365s)
damBreak3D_WCSPH-DBC_out/damBreak3D_WCSPH-DBC_Bound.vtk  (time: 0.140s)
damBreak3D_WCSPH-DBC_out/damBreak3D_WCSPH-DBC_Fluid.vtk  (time: 0.162s)
damBreak3D_WCSPH-DBC_out/damBreak3D_WCSPH-DBC.xml  (time:0.006s)
 
Computing normals...

*** WARNING: Current <normals> configuration is deprecated (damBreak3D_WCSPH-DBC_Def.xml(row:149)).

  Evaluating 505,584 particles with 22 shapes (distance 2x H = 0.048).
  Time for computing 552,469 normals: 0.123s   Max.Memory: 19.12 MiB
  Non-zero particle normals: 505,584/505,584    Normals size range: (0.006000 - 0.051962).
  Final zero normals: 0/505,584 (0.0%)   Maximum normal: 0.0519616 (2.17 x h)

Save files time: 1.482s

Particle limits:
  X range: -0.028 to 3.248 [m]
  Y range: -0.028 to 1.028 [m]
  Z range: -0.028 to 2.024 [m]

[SaveCase3D-End  time:1.509s]

[WARNINGS]
1. Current <normals> configuration is deprecated (damBreak3D_WCSPH-DBC_Def.xml(row:149)).

Time of execution: 1.975 sec. (1 threads)

Finished execution (code=0).

Geometry for resolutin with initial particle spacing 0.012 was successfuly generated.
{'dp': 0.012, 'h_coef': 2, 'density': 1000, 'speed_of_sound': 45.17, 'cfl': 0.15, 'particle_mass': 0.001728, 'smoothing_length': 0.024, 'search_radius': 0.048, 'time_step': 7.969891520920964e-05, 'fluid_n': 380970, 'boundary_n': 505584, 'domain_origin_x': np.float32(-0.07638001), 'domain_origin_y': np.float32(-0.07638001), 'domain_origin_z': np.float32(-0.07638001), 'domain_end_x': np.float32(3.248), 'domain_end_y': np.float32(1.028), 'domain_end_z': np.float32(2.024), 'domain_size_x': np.float32(3.38886), 'domain_size_y': np.float32(1.15776), 'domain_size_z': np.float32(3.18438)}
+--------------------------------------------------------------------------------------------------+
|                                                                                                  |
|                                   SPH simulation initialization.                                 |
|                                                                                                  |
+--------------------------------------------------------------------------------------------------+
| Reading fluid particles:                                               sources/dambreak_fluid.vtk |
| Reading boundary particles:                                         sources/dambreak_boundary.vtk |
+--------------------------------------------------------------------------------------------------+
+--------------------------------------------------------------------------------------------------+
|                                                                                                  |
[...]
Memory: 0.12 GiB  123.32 MiB  (129,309,600)

> MAIN
>> GeometryForNormals
FileShapes> hdp_Actual.vtk  shapes:22  points:44   (time:0.010s)
<< GeometryForNormals (8+6+1)
FileDbgDomains> damBreak3D_WCSPH-DBC_out/damBreak3D_WCSPH-DBC_dbg-fillbox.vtk  domains:1
FileShapes> _Actual.vtk  shapes:66  points:132   (time:0.003s)
<MAIN (Operations= 25+13+2 = 40)

Triangles: 176 (0 ignored)
[Draw-End  time:0.175s]

[LoadsXMLConfig]
Execution parameters.
Initials configuration.
Floating bodies configuration.
Properties configuration.
Predefined motion configuration.
[LoadsXMLConfig-End  time:0.002s]

[PreparePoints]
Computing Vtk-Cells data...  (time:1.653s)
BitSizeTot: 29 (2 + 10+8+9)
Points loaded: 4,989,696
Sorting points by Z...
Sorting points by Mk...
Computing Grid-points...  (time:0.504s)

List of Points:
Points -> Fixed-Boundary particles:
  block[  0] (mk: 10): 1955991  -->  1955991
  block[  1] (mk: 11):  19155  -->   19155
Points -> Fluid particles:
  block[  2] (mk:  1): 3014550  -->  3014550

Particle summary:
  Fixed....: 1,975,146  id:(0-1975145)   MKs:2 (10-11)
  Moving...: 0
  Floating.: 0
  Fluid....: 3,014,550  id:(1975146-4989695)   MKs:1 (1)

Total particles: 4,989,696 (bound=1975146 (fx=1975146 mv=0 ft=0) fluid=3014550)
Total MK blocks: 3 (bound=2 (fx=2 mv=0 ft=0) fluid=1)

Maximum depth: 0.534 (automatic)
Speed of system: 2.28879 (automatic)
Speed of sound: max(coefsound*speedsystem,10*sqrt(g*depth))
Speed of sound: 45.7757 max(45.7757,22.8879)
Speed of sound: 45.7757 (automatic)

Coefh:1.154701 (hdp:2.000000)

[PreparePoints-End  time:2.182s]

[SaveCase3D]
damBreak3D_WCSPH-DBC_out/damBreak3D_WCSPH-DBC_MkCells.vtk  (time:0.003s, shapes:42, points:168)
damBreak3D_WCSPH-DBC_out/damBreak3D_WCSPH-DBC.bi4<double>  (time:2.009s)
damBreak3D_WCSPH-DBC_out/damBreak3D_WCSPH-DBC_Bound.vtk  (time: 0.504s)
damBreak3D_WCSPH-DBC_out/damBreak3D_WCSPH-DBC_Fluid.vtk  (time: 1.201s)
damBreak3D_WCSPH-DBC_out/damBreak3D_WCSPH-DBC.xml  (time:0.006s)
 
Computing normals...

*** WARNING: Current <normals> configuration is deprecated (damBreak3D_WCSPH-DBC_Def.xml(row:149)).

  Evaluating 1,975,146 particles with 22 shapes (distance 2x H = 0.024).
  Time for computing 2,066,245 normals: 0.455s   Max.Memory: 75.96 MiB
  Non-zero particle normals: 1,975,146/1,975,146    Normals size range: (0.003000 - 0.025981).
  Final zero normals: 0/1,975,146 (0.0%)   Maximum normal: 0.0259808 (2.17 x h)

Save files time: 7.382s

Particle limits:
  X range: -0.01 to 3.23 [m]
  Y range: -0.01 to 1.01 [m]
  Z range: -0.01 to 2.012 [m]

[SaveCase3D-End  time:7.507s]

[WARNINGS]
1. Current <normals> configuration is deprecated (damBreak3D_WCSPH-DBC_Def.xml(row:149)).

Time of execution: 9.915 sec. (1 threads)

Finished execution (code=0).

Geometry for resolutin with initial particle spacing 0.006 was successfuly generated.
{'dp': 0.006, 'h_coef': 2, 'density': 1000, 'speed_of_sound': 45.17, 'cfl': 0.15, 'particle_mass': 0.000216, 'smoothing_length': 0.012, 'search_radius': 0.024, 'time_step': 3.984945760460482e-05, 'fluid_n': 3014550, 'boundary_n': 1975146, 'domain_origin_x': np.float32(-0.03417), 'domain_origin_y': np.float32(-0.03417), 'domain_origin_z': np.float32(-0.03417), 'domain_end_x': np.float32(3.23), 'domain_end_y': np.float32(1.01), 'domain_end_z': np.float32(2.012), 'domain_size_x': np.float32(3.3044398), 'domain_size_y': np.float32(1.07334), 'domain_size_z': np.float32(3.0881698)}
+--------------------------------------------------------------------------------------------------+
|                                                                                                  |
|                                   SPH simulation initialization.                                 |
|                                                                                                  |
+--------------------------------------------------------------------------------------------------+
| Reading fluid particles:                                               sources/dambreak_fluid.vtk |
| Reading boundary particles:                                         sources/dambreak_boundary.vtk |
+--------------------------------------------------------------------------------------------------+
+--------------------------------------------------------------------------------------------------+
|                                                                                                  |
|                              SPH simulation successfully initialized.                            |
|                                                                                                  |
+--------------------------------------------------------------------------------------------------+
+--------------------------------------------------------------------------------------------------+
|                                                                                                  |
|                                   SPH simulation configuration.                                  |
|                                                                                                  |
+--------------------------------------------------------------------------------------------------+
| Case name:                                                                   damBreak3D_WCSPH-DBC |
+--------------------------------------------------------------------------------------------------+
| MPI processes:                                                                                  1 |
| Device type:                                                                    TNL::Devices::GPU |
| Particle system type:                                    TNL::ParticleSystem::ParticlesLinkedList |
| SPH model:                                                                    TNL::SPH::WCSPH_DBC |
| Verbose:                                                                            with-snapshot |
| Output directory:                                                                         results |
| Particles format                                                                             auto |
+--------------------------------------------------------------------------------------------------+
|                                                                                                  |
|                         TNL::SPH::WCSPH_DBC (delta-WCSPH) model parameters                       |
|                                                                                                  |
+--------------------------------------------------------------------------------------------------+
| Resolution parameters                                                                             |
|  Initial particle distance (dp):                                                            0.006 |
|  Smoothing length (h):                                                                      0.012 |
|  Spatial resolution (h/dp):                                                                     2 |
|  Particle mass (mass):                                                                   0.000216 |
| Model parameters                                                                                  |
|  Diffusive term:                                                   TNL::SPH::MolteniDiffusiveTerm |
|  Diffusive term coefficient (delta):                                                          0.1 |
|  Viscous term:                                                      TNL::SPH::ArtificialViscosity |
|  Artificial vicosity coefficient (alpha):                                                    0.02 |
|  Equation of state:                                           TNL::SPH::TaitWeaklyCompressibleEOS |
| Coefficient of EOS (coefB):                                                                291476 |
|  Speed of sound (speedOfSound):                                                             45.17 |
|  Referentail density (rho0):                                                                 1000 |
| Boundary condition type                                                  TNL::SPH::WCSPH_DBC::DBC |
| Time integration                                                                                  |
|  Integration scheme:                                            TNL::SPH::WCSPH_DBC::VerletScheme |
|  Time stepping:                                                        TNL::SPH::ConstantTimeStep |
|  Initial time step (dtInit):                                                            3.985e-05 |
| External bulk force:                                                              [ 0, 0, -9.81 ] |
+--------------------------------------------------------------------------------------------------+
|                                                                                                  |
|                                     Fluid object information.                                    |
|                                                                                                  |
+--------------------------------------------------------------------------------------------------+
| Particle system parameters:                                                                       |
| Number of particles:                                                                      3014550 |
| Number of allocated particles:                                                            3014550 |
| Search radius:                                                                              0.024 |
| Grid origin:                                                     [ -0.03417, -0.03417, -0.03417 ] |
| Grid origin global coordinates:                                                       [ 0, 0, 0 ] |
| Grid origin global coordinates with overlap:                                          [ 0, 0, 0 ] |
| Grid referential origin:                                         [ -0.03417, -0.03417, -0.03417 ] |
| Grid dimensions:                                                                 [ 140, 47, 131 ] |
| Domain grid overlap width:                                                                      0 |
| Grid origin with overlap:                                        [ -0.03417, -0.03417, -0.03417 ] |
| Grid dimension with overlap:                                                     [ 140, 47, 131 ] |
+--------------------------------------------------------------------------------------------------+
|                                                                                                  |
|                                    Boundary object information:                                  |
|                                                                                                  |
+--------------------------------------------------------------------------------------------------+
| Particle system parameters:                                                                       |
| Number of particles:                                                                      1975146 |
| Number of allocated particles:                                                            1975146 |
| Search radius:                                                                              0.024 |
| Grid origin:                                                     [ -0.03417, -0.03417, -0.03417 ] |
| Grid origin global coordinates:                                                       [ 0, 0, 0 ] |
| Grid origin global coordinates with overlap:                                          [ 0, 0, 0 ] |
| Grid referential origin:                                         [ -0.03417, -0.03417, -0.03417 ] |
| Grid dimensions:                                                                 [ 140, 47, 131 ] |
| Domain grid overlap width:                                                                      0 |
| Grid origin with overlap:                                        [ -0.03417, -0.03417, -0.03417 ] |
| Grid dimension with overlap:                                                     [ 140, 47, 131 ] |
+--------------------------------------------------------------------------------------------------+
|                                                                                                  |
|                                        System information.                                       |
|                                                                                                  |
+--------------------------------------------------------------------------------------------------+
| Host name:                                                                     fau1.natur.cuni.cz |
| System:                                                                                     Linux |
| Release:                                                                           6.1.0-41-amd64 |
| Architecture:                                                                               AMD64 |
| TNL compiler:                                                               Nvidia NVCC (12.6.68) |
| CPU info                                                                                          |
|  Model name:                                                      AMD EPYC 7452 32-Core Processor |
|  Cores:                                                                                        32 |
|  Threads per core:                                                                              1 |
|  Max clock rate (in MHz):                                                                    2350 |
|  Cache (L1d, L1i, L2, L3):                                                     32, 32, 512, 16384 |
| GPU info                                                                                          |
|  Name                                                                             Quadro RTX 5000 |
|  Architecture                                                                                 7.5 |
|  GPU cores                                                                                   3072 |
|  Global memory (in GB)                                                                     16.702 |
|  ECC enabled                                                                                    0 |
+--------------------------------------------------------------------------------------------------+
| Started at:                                                             Sat Jan 24 2026, 22:48:34 |
+--------------------------------------------------------------------------------------------------+
+--------------------------------------------------------------------------------------------------+
| Simulation time: 0.000000 s, simulation step: 0                                                   |
| Current time:                                                           Sat Jan 24 2026, 22:48:34 |
| Number of fluid particles:                                                                3014550 |
| Number of allocated fluid particles:                                                      3014550 |
| Number of boundary particles:                                                             1975146 |
| Number of allocated fluid particles:                                                      1975146 |
+--------------------------------------------------------------------------------------------------+
| Saved:                                                       results/fluid_0.000000_particles.vtk |
| Saved:                                                    results/boundary_0.000000_particles.vtk |
| Saved:                                                                  results/grid_0.000000.vtk |
+--------------------------------------------------------------------------------------------------+
|                                                                                                  |
|                               SPH simulation successfully finished.                              |
|                                                                                                  |
+--------------------------------------------------------------------------------------------------+
| Ended at:                                                               Sat Jan 24 2026, 23:59:11 |
+--------------------------------------------------------------------------------------------------+
|                                                                                                  |
|                                          Computation time                                        |
|                                                                                                  |
+--------------------------------------------------------------------------------------------------+
| integrate                                                                                  97.244 |
| integrate-average                                                                     0.000968238 |
| integrate-percentage                                                                      2.29739 |
+--------------------------------------------------------------------------------------------------+
| interact                                                                                  3985.74 |
| interact-average                                                                        0.0396852 |
| interact-percentage                                                                        94.163 |
+--------------------------------------------------------------------------------------------------+
| search                                                                                    149.823 |
| search-average                                                                         0.00149176 |
| search-percentage                                                                         3.53957 |
+--------------------------------------------------------------------------------------------------+
| search_cellIndices                                                                              0 |
| search_cellIndices-average                                                                      0 |
| search_cellIndices-percentage                                                                   0 |
+--------------------------------------------------------------------------------------------------+
| search_reset                                                                                    0 |
| search_reset-average                                                                            0 |
| search_reset-percentage                                                                         0 |
+--------------------------------------------------------------------------------------------------+
| search_sort                                                                                     0 |
| search_sort-average                                                                             0 |
| search_sort-percentage                                                                          0 |
+--------------------------------------------------------------------------------------------------+
| search_toCells                                                                                  0 |
| search_toCells-average                                                                          0 |
| search_toCells-percentage                                                                       0 |
+--------------------------------------------------------------------------------------------------+
| Total time:                                                                               4232.81 |
+--------------------------------------------------------------------------------------------------+
